                                   MODFLOW 6
                U.S. GEOLOGICAL SURVEY MODULAR HYDROLOGIC MODEL
                            VERSION 6.4.4 02/13/2024

   MODFLOW 6 compiled Feb 13 2024 15:40:13 with Intel(R) Fortran Intel(R) 64
   Compiler Classic for applications running on Intel(R) 64, Version 2021.7.0
                             Build 20220726_000000

This software has been approved for release by the U.S. Geological 
Survey (USGS). Although the software has been subjected to rigorous 
review, the USGS reserves the right to update the software as needed 
pursuant to further analysis and review. No warranty, expressed or 
implied, is made by the USGS or the U.S. Government as to the 
functionality of the software and related material nor shall the 
fact of release constitute any such warranty. Furthermore, the 
software is released on condition that neither the USGS nor the U.S. 
Government shall be held liable for any damages resulting from its 
authorized or unauthorized use. Also refer to the USGS Water 
Resources Software User Rights Notice for complete use, copyright, 
and distribution information.


As a work of the United States Government, this USGS product is 
in the public domain within the United States. You can copy, 
modify, distribute, and perform the work, even for commercial 
purposes, all without asking permission. Additionally, USGS 
waives copyright and related rights in the work worldwide 
through CC0 1.0 Universal Public Domain Dedication 
(https://creativecommons.org/publicdomain/zero/1.0/).

The following GNU Lesser General Public License (LGPL) libraries
are used in this USGS product:

    SPARSKIT version 2.0
      ilut, luson, and qsplit 
      (https://www-users.cse.umn.edu/~saad/software/SPARSKIT/)

    RCM - Reverse Cuthill McKee Ordering
      (https://people.math.sc.edu/Burkardt/f_src/rcm/rcm.html)

    BLAS - Basic Linear Algebra Subprograms Level 1
      (https://people.math.sc.edu/Burkardt/f_src/blas1_d/blas1_d.html)

    SPARSEKIT - Sparse Matrix Utility Package
      amux, dperm, dvperm, rperm, and cperm
      (https://people.sc.fsu.edu/~jburkardt/f77_src/sparsekit/sparsekit.html)

The following BSD-3 License libraries are used in this USGS product:

    Modern Fortran DAG Library
      Copyright (c) 2018, Jacob Williams
      All rights reserved.
      (https://github.com/jacobwilliams/daglib)

MODFLOW 6 compiler options: /Isrc\libmf6core.a.p /Isrc /I..\src
/Isrc\libmf6_external.a.p /MTd /nologo /warn:general /warn:truncated_source
/stand:f08 /Zi /traceback /O2 /fpe:0 /heap-arrays:0 /traceback /fpp
/Qdiag-disable:7416 /Qdiag-disable:7025 /Qdiag-disable:5268
/Fdsrc\libmf6core.a.p\Utilities_compilerversion.F90.pdb
/module:src\libmf6core.a.p
/Fosrc/libmf6core.a.p/Utilities_compilerversion.F90.obj /c

System command used to initiate simulation:
C:\Users\janek\WRDAPP\mf6.4.4_win64\bin\mf6.exe

MODFLOW was compiled using uniform precision.

Real Variables
  KIND: 8
  TINY (smallest non-zero value):    2.225074-308
  HUGE (largest value):    1.797693+308
  PRECISION: 15
  SIZE IN BITS: 64

Integer Variables
  KIND: 4
  HUGE (largest value): 2147483647
  SIZE IN BITS: 32

Long Integer Variables
  KIND: 8
  HUGE (largest value): 9223372036854775807
  SIZE IN BITS: 64

Logical Variables
  KIND: 4
  SIZE IN BITS: 32
 

 OPENED mfsim.nam
 FILE TYPE:NAM6               UNIT 1001   STATUS:OLD                 
 FORMAT:FORMATTED              ACCESS:SEQUENTIAL          
 ACTION:READ                

 # File generated by Flopy version 3.6.0 on 02/21/2024 at 09:09:29.

 OPENED Reference.nam
 FILE TYPE:GWF6               UNIT 1002   STATUS:OLD                 
 FORMAT:FORMATTED              ACCESS:SEQUENTIAL          
 ACTION:READ                

 # File generated by Flopy version 3.6.0 on 02/21/2024 at 09:09:29.

 OPENED Reference.disv
 FILE TYPE:DISV6              UNIT 1003   STATUS:OLD                 
 FORMAT:FORMATTED              ACCESS:SEQUENTIAL          
 ACTION:READ                

 # File generated by Flopy version 3.6.0 on 02/21/2024 at 09:09:29.

 OPENED Reference.npf
 FILE TYPE:NPF6               UNIT 1004   STATUS:OLD                 
 FORMAT:FORMATTED              ACCESS:SEQUENTIAL          
 ACTION:READ                

 # File generated by Flopy version 3.6.0 on 02/21/2024 at 09:09:30.

 OPENED Reference.sto
 FILE TYPE:STO6      UNIT 1005   STATUS:OLD                 
 FORMAT:FORMATTED              ACCESS:SEQUENTIAL          
 ACTION:READ                


 OPENED Reference.ic
 FILE TYPE:IC6                UNIT 1006   STATUS:OLD                 
 FORMAT:FORMATTED              ACCESS:SEQUENTIAL          
 ACTION:READ                

 # File generated by Flopy version 3.6.0 on 02/21/2024 at 09:09:30.

 OPENED Reference.oc
 FILE TYPE:OC6       UNIT 1007   STATUS:OLD                 
 FORMAT:FORMATTED              ACCESS:SEQUENTIAL          
 ACTION:READ                


 OPENED Reference.wel
 FILE TYPE:WEL6               UNIT 1008   STATUS:OLD                 
 FORMAT:FORMATTED              ACCESS:SEQUENTIAL          
 ACTION:READ                

 # File generated by Flopy version 3.6.0 on 02/21/2024 at 09:12:24.

 OPENED Reference.riv
 FILE TYPE:RIV6               UNIT 1009   STATUS:OLD                 
 FORMAT:FORMATTED              ACCESS:SEQUENTIAL          
 ACTION:READ                

 # File generated by Flopy version 3.6.0 on 02/21/2024 at 09:12:55.

 OPENED Reference.rch
 FILE TYPE:RCH6               UNIT 1011   STATUS:OLD                 
 FORMAT:FORMATTED              ACCESS:SEQUENTIAL          
 ACTION:READ                

 # File generated by Flopy version 3.6.0 on 02/21/2024 at 09:11:07.

 OPENED Reference.chd
 FILE TYPE:CHD6               UNIT 1012   STATUS:OLD                 
 FORMAT:FORMATTED              ACCESS:SEQUENTIAL          
 ACTION:READ                

 # File generated by Flopy version 3.6.0 on 02/21/2024 at 09:13:24.

 READING SIMULATION OPTIONS
    MAXIMUM NUMBER OF ERRORS THAT WILL BE STORED IS 1000
 END OF SIMULATION OPTIONS

 READING SIMULATION TIMING

 OPENED Reference.tdis
 FILE TYPE:TDIS   UNIT 1013   STATUS:OLD                 
 FORMAT:FORMATTED              ACCESS:SEQUENTIAL          
 ACTION:READ                


 TDIS -- TEMPORAL DISCRETIZATION PACKAGE,
 VERSION 1 : 11/13/2014 - INPUT READ FROM UNIT 1013
 # File generated by Flopy version 3.6.0 on 02/21/2024 at 09:09:29.
 PROCESSING TDIS OPTIONS
    SIMULATION TIME UNIT IS SECONDS
 END OF TDIS OPTIONS
 PROCESSING TDIS DIMENSIONS
 1460 STRESS PERIOD(S) IN SIMULATION
 END OF TDIS DIMENSIONS
 PROCESSING TDIS PERIODDATA


 STRESS PERIOD     LENGTH       TIME STEPS     MULTIPLIER FOR DELT
 ----------------------------------------------------------------------------
        1         21600.00          1                    1.000
        2         21600.00          1                    1.000
        3         21600.00          1                    1.000
        4         21600.00          1                    1.000
        5         21600.00          1                    1.000
        6         21600.00          1                    1.000
        7         21600.00          1                    1.000
        8         21600.00          1                    1.000
        9         21600.00          1                    1.000
       10         21600.00          1                    1.000
       11         21600.00          1                    1.000
       12         21600.00          1                    1.000
       13         21600.00          1                    1.000
       14         21600.00          1                    1.000
       15         21600.00          1                    1.000
       16         21600.00          1                    1.000
       17         21600.00          1                    1.000
       18         21600.00          1                    1.000
       19         21600.00          1                    1.000
       20         21600.00          1                    1.000
       21         21600.00          1                    1.000
       22         21600.00          1                    1.000
       23         21600.00          1                    1.000
       24         21600.00          1                    1.000
       25         21600.00          1                    1.000
       26         21600.00          1                    1.000
       27         21600.00          1                    1.000
       28         21600.00          1                    1.000
       29         21600.00          1                    1.000
       30         21600.00          1                    1.000
       31         21600.00          1                    1.000
       32         21600.00          1                    1.000
       33         21600.00          1                    1.000
       34         21600.00          1                    1.000
       35         21600.00          1                    1.000
       36         21600.00          1                    1.000
       37         21600.00          1                    1.000
       38         21600.00          1                    1.000
       39         21600.00          1                    1.000
       40         21600.00          1                    1.000
       41         21600.00          1                    1.000
       42         21600.00          1                    1.000
       43         21600.00          1                    1.000
       44         21600.00          1                    1.000
       45         21600.00          1                    1.000
       46         21600.00          1                    1.000
       47         21600.00          1                    1.000
       48         21600.00          1                    1.000
       49         21600.00          1                    1.000
       50         21600.00          1                    1.000
       51         21600.00          1                    1.000
       52         21600.00          1                    1.000
       53         21600.00          1                    1.000
       54         21600.00          1                    1.000
       55         21600.00          1                    1.000
       56         21600.00          1                    1.000
       57         21600.00          1                    1.000
       58         21600.00          1                    1.000
       59         21600.00          1                    1.000
       60         21600.00          1                    1.000
       61         21600.00          1                    1.000
       62         21600.00          1                    1.000
       63         21600.00          1                    1.000
       64         21600.00          1                    1.000
       65         21600.00          1                    1.000
       66         21600.00          1                    1.000
       67         21600.00          1                    1.000
       68         21600.00          1                    1.000
       69         21600.00          1                    1.000
       70         21600.00          1                    1.000
       71         21600.00          1                    1.000
       72         21600.00          1                    1.000
       73         21600.00          1                    1.000
       74         21600.00          1                    1.000
       75         21600.00          1                    1.000
       76         21600.00          1                    1.000
       77         21600.00          1                    1.000
       78         21600.00          1                    1.000
       79         21600.00          1                    1.000
       80         21600.00          1                    1.000
       81         21600.00          1                    1.000
       82         21600.00          1                    1.000
       83         21600.00          1                    1.000
       84         21600.00          1                    1.000
       85         21600.00          1                    1.000
       86         21600.00          1                    1.000
       87         21600.00          1                    1.000
       88         21600.00          1                    1.000
       89         21600.00          1                    1.000
       90         21600.00          1                    1.000
       91         21600.00          1                    1.000
       92         21600.00          1                    1.000
       93         21600.00          1                    1.000
       94         21600.00          1                    1.000
       95         21600.00          1                    1.000
       96         21600.00          1                    1.000
       97         21600.00          1                    1.000
       98         21600.00          1                    1.000
       99         21600.00          1                    1.000
      100         21600.00          1                    1.000
      101         21600.00          1                    1.000
      102         21600.00          1                    1.000
      103         21600.00          1                    1.000
      104         21600.00          1                    1.000
      105         21600.00          1                    1.000
      106         21600.00          1                    1.000
      107         21600.00          1                    1.000
      108         21600.00          1                    1.000
      109         21600.00          1                    1.000
      110         21600.00          1                    1.000
      111         21600.00          1                    1.000
      112         21600.00          1                    1.000
      113         21600.00          1                    1.000
      114         21600.00          1                    1.000
      115         21600.00          1                    1.000
      116         21600.00          1                    1.000
      117         21600.00          1                    1.000
      118         21600.00          1                    1.000
      119         21600.00          1                    1.000
      120         21600.00          1                    1.000
      121         21600.00          1                    1.000
      122         21600.00          1                    1.000
      123         21600.00          1                    1.000
      124         21600.00          1                    1.000
      125         21600.00          1                    1.000
      126         21600.00          1                    1.000
      127         21600.00          1                    1.000
      128         21600.00          1                    1.000
      129         21600.00          1                    1.000
      130         21600.00          1                    1.000
      131         21600.00          1                    1.000
      132         21600.00          1                    1.000
      133         21600.00          1                    1.000
      134         21600.00          1                    1.000
      135         21600.00          1                    1.000
      136         21600.00          1                    1.000
      137         21600.00          1                    1.000
      138         21600.00          1                    1.000
      139         21600.00          1                    1.000
      140         21600.00          1                    1.000
      141         21600.00          1                    1.000
      142         21600.00          1                    1.000
      143         21600.00          1                    1.000
      144         21600.00          1                    1.000
      145         21600.00          1                    1.000
      146         21600.00          1                    1.000
      147         21600.00          1                    1.000
      148         21600.00          1                    1.000
      149         21600.00          1                    1.000
      150         21600.00          1                    1.000
      151         21600.00          1                    1.000
      152         21600.00          1                    1.000
      153         21600.00          1                    1.000
      154         21600.00          1                    1.000
      155         21600.00          1                    1.000
      156         21600.00          1                    1.000
      157         21600.00          1                    1.000
      158         21600.00          1                    1.000
      159         21600.00          1                    1.000
      160         21600.00          1                    1.000
      161         21600.00          1                    1.000
      162         21600.00          1                    1.000
      163         21600.00          1                    1.000
      164         21600.00          1                    1.000
      165         21600.00          1                    1.000
      166         21600.00          1                    1.000
      167         21600.00          1                    1.000
      168         21600.00          1                    1.000
      169         21600.00          1                    1.000
      170         21600.00          1                    1.000
      171         21600.00          1                    1.000
      172         21600.00          1                    1.000
      173         21600.00          1                    1.000
      174         21600.00          1                    1.000
      175         21600.00          1                    1.000
      176         21600.00          1                    1.000
      177         21600.00          1                    1.000
      178         21600.00          1                    1.000
      179         21600.00          1                    1.000
      180         21600.00          1                    1.000
      181         21600.00          1                    1.000
      182         21600.00          1                    1.000
      183         21600.00          1                    1.000
      184         21600.00          1                    1.000
      185         21600.00          1                    1.000
      186         21600.00          1                    1.000
      187         21600.00          1                    1.000
      188         21600.00          1                    1.000
      189         21600.00          1                    1.000
      190         21600.00          1                    1.000
      191         21600.00          1                    1.000
      192         21600.00          1                    1.000
      193         21600.00          1                    1.000
      194         21600.00          1                    1.000
      195         21600.00          1                    1.000
      196         21600.00          1                    1.000
      197         21600.00          1                    1.000
      198         21600.00          1                    1.000
      199         21600.00          1                    1.000
      200         21600.00          1                    1.000
      201         21600.00          1                    1.000
      202         21600.00          1                    1.000
      203         21600.00          1                    1.000
      204         21600.00          1                    1.000
      205         21600.00          1                    1.000
      206         21600.00          1                    1.000
      207         21600.00          1                    1.000
      208         21600.00          1                    1.000
      209         21600.00          1                    1.000
      210         21600.00          1                    1.000
      211         21600.00          1                    1.000
      212         21600.00          1                    1.000
      213         21600.00          1                    1.000
      214         21600.00          1                    1.000
      215         21600.00          1                    1.000
      216         21600.00          1                    1.000
      217         21600.00          1                    1.000
      218         21600.00          1                    1.000
      219         21600.00          1                    1.000
      220         21600.00          1                    1.000
      221         21600.00          1                    1.000
      222         21600.00          1                    1.000
      223         21600.00          1                    1.000
      224         21600.00          1                    1.000
      225         21600.00          1                    1.000
      226         21600.00          1                    1.000
      227         21600.00          1                    1.000
      228         21600.00          1                    1.000
      229         21600.00          1                    1.000
      230         21600.00          1                    1.000
      231         21600.00          1                    1.000
      232         21600.00          1                    1.000
      233         21600.00          1                    1.000
      234         21600.00          1                    1.000
      235         21600.00          1                    1.000
      236         21600.00          1                    1.000
      237         21600.00          1                    1.000
      238         21600.00          1                    1.000
      239         21600.00          1                    1.000
      240         21600.00          1                    1.000
      241         21600.00          1                    1.000
      242         21600.00          1                    1.000
      243         21600.00          1                    1.000
      244         21600.00          1                    1.000
      245         21600.00          1                    1.000
      246         21600.00          1                    1.000
      247         21600.00          1                    1.000
      248         21600.00          1                    1.000
      249         21600.00          1                    1.000
      250         21600.00          1                    1.000
      251         21600.00          1                    1.000
      252         21600.00          1                    1.000
      253         21600.00          1                    1.000
      254         21600.00          1                    1.000
      255         21600.00          1                    1.000
      256         21600.00          1                    1.000
      257         21600.00          1                    1.000
      258         21600.00          1                    1.000
      259         21600.00          1                    1.000
      260         21600.00          1                    1.000
      261         21600.00          1                    1.000
      262         21600.00          1                    1.000
      263         21600.00          1                    1.000
      264         21600.00          1                    1.000
      265         21600.00          1                    1.000
      266         21600.00          1                    1.000
      267         21600.00          1                    1.000
      268         21600.00          1                    1.000
      269         21600.00          1                    1.000
      270         21600.00          1                    1.000
      271         21600.00          1                    1.000
      272         21600.00          1                    1.000
      273         21600.00          1                    1.000
      274         21600.00          1                    1.000
      275         21600.00          1                    1.000
      276         21600.00          1                    1.000
      277         21600.00          1                    1.000
      278         21600.00          1                    1.000
      279         21600.00          1                    1.000
      280         21600.00          1                    1.000
      281         21600.00          1                    1.000
      282         21600.00          1                    1.000
      283         21600.00          1                    1.000
      284         21600.00          1                    1.000
      285         21600.00          1                    1.000
      286         21600.00          1                    1.000
      287         21600.00          1                    1.000
      288         21600.00          1                    1.000
      289         21600.00          1                    1.000
      290         21600.00          1                    1.000
      291         21600.00          1                    1.000
      292         21600.00          1                    1.000
      293         21600.00          1                    1.000
      294         21600.00          1                    1.000
      295         21600.00          1                    1.000
      296         21600.00          1                    1.000
      297         21600.00          1                    1.000
      298         21600.00          1                    1.000
      299         21600.00          1                    1.000
      300         21600.00          1                    1.000
      301         21600.00          1                    1.000
      302         21600.00          1                    1.000
      303         21600.00          1                    1.000
      304         21600.00          1                    1.000
      305         21600.00          1                    1.000
      306         21600.00          1                    1.000
      307         21600.00          1                    1.000
      308         21600.00          1                    1.000
      309         21600.00          1                    1.000
      310         21600.00          1                    1.000
      311         21600.00          1                    1.000
      312         21600.00          1                    1.000
      313         21600.00          1                    1.000
      314         21600.00          1                    1.000
      315         21600.00          1                    1.000
      316         21600.00          1                    1.000
      317         21600.00          1                    1.000
      318         21600.00          1                    1.000
      319         21600.00          1                    1.000
      320         21600.00          1                    1.000
      321         21600.00          1                    1.000
      322         21600.00          1                    1.000
      323         21600.00          1                    1.000
      324         21600.00          1                    1.000
      325         21600.00          1                    1.000
      326         21600.00          1                    1.000
      327         21600.00          1                    1.000
      328         21600.00          1                    1.000
      329         21600.00          1                    1.000
      330         21600.00          1                    1.000
      331         21600.00          1                    1.000
      332         21600.00          1                    1.000
      333         21600.00          1                    1.000
      334         21600.00          1                    1.000
      335         21600.00          1                    1.000
      336         21600.00          1                    1.000
      337         21600.00          1                    1.000
      338         21600.00          1                    1.000
      339         21600.00          1                    1.000
      340         21600.00          1                    1.000
      341         21600.00          1                    1.000
      342         21600.00          1                    1.000
      343         21600.00          1                    1.000
      344         21600.00          1                    1.000
      345         21600.00          1                    1.000
      346         21600.00          1                    1.000
      347         21600.00          1                    1.000
      348         21600.00          1                    1.000
      349         21600.00          1                    1.000
      350         21600.00          1                    1.000
      351         21600.00          1                    1.000
      352         21600.00          1                    1.000
      353         21600.00          1                    1.000
      354         21600.00          1                    1.000
      355         21600.00          1                    1.000
      356         21600.00          1                    1.000
      357         21600.00          1                    1.000
      358         21600.00          1                    1.000
      359         21600.00          1                    1.000
      360         21600.00          1                    1.000
      361         21600.00          1                    1.000
      362         21600.00          1                    1.000
      363         21600.00          1                    1.000
      364         21600.00          1                    1.000
      365         21600.00          1                    1.000
      366         21600.00          1                    1.000
      367         21600.00          1                    1.000
      368         21600.00          1                    1.000
      369         21600.00          1                    1.000
      370         21600.00          1                    1.000
      371         21600.00          1                    1.000
      372         21600.00          1                    1.000
      373         21600.00          1                    1.000
      374         21600.00          1                    1.000
      375         21600.00          1                    1.000
      376         21600.00          1                    1.000
      377         21600.00          1                    1.000
      378         21600.00          1                    1.000
      379         21600.00          1                    1.000
      380         21600.00          1                    1.000
      381         21600.00          1                    1.000
      382         21600.00          1                    1.000
      383         21600.00          1                    1.000
      384         21600.00          1                    1.000
      385         21600.00          1                    1.000
      386         21600.00          1                    1.000
      387         21600.00          1                    1.000
      388         21600.00          1                    1.000
      389         21600.00          1                    1.000
      390         21600.00          1                    1.000
      391         21600.00          1                    1.000
      392         21600.00          1                    1.000
      393         21600.00          1                    1.000
      394         21600.00          1                    1.000
      395         21600.00          1                    1.000
      396         21600.00          1                    1.000
      397         21600.00          1                    1.000
      398         21600.00          1                    1.000
      399         21600.00          1                    1.000
      400         21600.00          1                    1.000
      401         21600.00          1                    1.000
      402         21600.00          1                    1.000
      403         21600.00          1                    1.000
      404         21600.00          1                    1.000
      405         21600.00          1                    1.000
      406         21600.00          1                    1.000
      407         21600.00          1                    1.000
      408         21600.00          1                    1.000
      409         21600.00          1                    1.000
      410         21600.00          1                    1.000
      411         21600.00          1                    1.000
      412         21600.00          1                    1.000
      413         21600.00          1                    1.000
      414         21600.00          1                    1.000
      415         21600.00          1                    1.000
      416         21600.00          1                    1.000
      417         21600.00          1                    1.000
      418         21600.00          1                    1.000
      419         21600.00          1                    1.000
      420         21600.00          1                    1.000
      421         21600.00          1                    1.000
      422         21600.00          1                    1.000
      423         21600.00          1                    1.000
      424         21600.00          1                    1.000
      425         21600.00          1                    1.000
      426         21600.00          1                    1.000
      427         21600.00          1                    1.000
      428         21600.00          1                    1.000
      429         21600.00          1                    1.000
      430         21600.00          1                    1.000
      431         21600.00          1                    1.000
      432         21600.00          1                    1.000
      433         21600.00          1                    1.000
      434         21600.00          1                    1.000
      435         21600.00          1                    1.000
      436         21600.00          1                    1.000
      437         21600.00          1                    1.000
      438         21600.00          1                    1.000
      439         21600.00          1                    1.000
      440         21600.00          1                    1.000
      441         21600.00          1                    1.000
      442         21600.00          1                    1.000
      443         21600.00          1                    1.000
      444         21600.00          1                    1.000
      445         21600.00          1                    1.000
      446         21600.00          1                    1.000
      447         21600.00          1                    1.000
      448         21600.00          1                    1.000
      449         21600.00          1                    1.000
      450         21600.00          1                    1.000
      451         21600.00          1                    1.000
      452         21600.00          1                    1.000
      453         21600.00          1                    1.000
      454         21600.00          1                    1.000
      455         21600.00          1                    1.000
      456         21600.00          1                    1.000
      457         21600.00          1                    1.000
      458         21600.00          1                    1.000
      459         21600.00          1                    1.000
      460         21600.00          1                    1.000
      461         21600.00          1                    1.000
      462         21600.00          1                    1.000
      463         21600.00          1                    1.000
      464         21600.00          1                    1.000
      465         21600.00          1                    1.000
      466         21600.00          1                    1.000
      467         21600.00          1                    1.000
      468         21600.00          1                    1.000
      469         21600.00          1                    1.000
      470         21600.00          1                    1.000
      471         21600.00          1                    1.000
      472         21600.00          1                    1.000
      473         21600.00          1                    1.000
      474         21600.00          1                    1.000
      475         21600.00          1                    1.000
      476         21600.00          1                    1.000
      477         21600.00          1                    1.000
      478         21600.00          1                    1.000
      479         21600.00          1                    1.000
      480         21600.00          1                    1.000
      481         21600.00          1                    1.000
      482         21600.00          1                    1.000
      483         21600.00          1                    1.000
      484         21600.00          1                    1.000
      485         21600.00          1                    1.000
      486         21600.00          1                    1.000
      487         21600.00          1                    1.000
      488         21600.00          1                    1.000
      489         21600.00          1                    1.000
      490         21600.00          1                    1.000
      491         21600.00          1                    1.000
      492         21600.00          1                    1.000
      493         21600.00          1                    1.000
      494         21600.00          1                    1.000
      495         21600.00          1                    1.000
      496         21600.00          1                    1.000
      497         21600.00          1                    1.000
      498         21600.00          1                    1.000
      499         21600.00          1                    1.000
      500         21600.00          1                    1.000
      501         21600.00          1                    1.000
      502         21600.00          1                    1.000
      503         21600.00          1                    1.000
      504         21600.00          1                    1.000
      505         21600.00          1                    1.000
      506         21600.00          1                    1.000
      507         21600.00          1                    1.000
      508         21600.00          1                    1.000
      509         21600.00          1                    1.000
      510         21600.00          1                    1.000
      511         21600.00          1                    1.000
      512         21600.00          1                    1.000
      513         21600.00          1                    1.000
      514         21600.00          1                    1.000
      515         21600.00          1                    1.000
      516         21600.00          1                    1.000
      517         21600.00          1                    1.000
      518         21600.00          1                    1.000
      519         21600.00          1                    1.000
      520         21600.00          1                    1.000
      521         21600.00          1                    1.000
      522         21600.00          1                    1.000
      523         21600.00          1                    1.000
      524         21600.00          1                    1.000
      525         21600.00          1                    1.000
      526         21600.00          1                    1.000
      527         21600.00          1                    1.000
      528         21600.00          1                    1.000
      529         21600.00          1                    1.000
      530         21600.00          1                    1.000
      531         21600.00          1                    1.000
      532         21600.00          1                    1.000
      533         21600.00          1                    1.000
      534         21600.00          1                    1.000
      535         21600.00          1                    1.000
      536         21600.00          1                    1.000
      537         21600.00          1                    1.000
      538         21600.00          1                    1.000
      539         21600.00          1                    1.000
      540         21600.00          1                    1.000
      541         21600.00          1                    1.000
      542         21600.00          1                    1.000
      543         21600.00          1                    1.000
      544         21600.00          1                    1.000
      545         21600.00          1                    1.000
      546         21600.00          1                    1.000
      547         21600.00          1                    1.000
      548         21600.00          1                    1.000
      549         21600.00          1                    1.000
      550         21600.00          1                    1.000
      551         21600.00          1                    1.000
      552         21600.00          1                    1.000
      553         21600.00          1                    1.000
      554         21600.00          1                    1.000
      555         21600.00          1                    1.000
      556         21600.00          1                    1.000
      557         21600.00          1                    1.000
      558         21600.00          1                    1.000
      559         21600.00          1                    1.000
      560         21600.00          1                    1.000
      561         21600.00          1                    1.000
      562         21600.00          1                    1.000
      563         21600.00          1                    1.000
      564         21600.00          1                    1.000
      565         21600.00          1                    1.000
      566         21600.00          1                    1.000
      567         21600.00          1                    1.000
      568         21600.00          1                    1.000
      569         21600.00          1                    1.000
      570         21600.00          1                    1.000
      571         21600.00          1                    1.000
      572         21600.00          1                    1.000
      573         21600.00          1                    1.000
      574         21600.00          1                    1.000
      575         21600.00          1                    1.000
      576         21600.00          1                    1.000
      577         21600.00          1                    1.000
      578         21600.00          1                    1.000
      579         21600.00          1                    1.000
      580         21600.00          1                    1.000
      581         21600.00          1                    1.000
      582         21600.00          1                    1.000
      583         21600.00          1                    1.000
      584         21600.00          1                    1.000
      585         21600.00          1                    1.000
      586         21600.00          1                    1.000
      587         21600.00          1                    1.000
      588         21600.00          1                    1.000
      589         21600.00          1                    1.000
      590         21600.00          1                    1.000
      591         21600.00          1                    1.000
      592         21600.00          1                    1.000
      593         21600.00          1                    1.000
      594         21600.00          1                    1.000
      595         21600.00          1                    1.000
      596         21600.00          1                    1.000
      597         21600.00          1                    1.000
      598         21600.00          1                    1.000
      599         21600.00          1                    1.000
      600         21600.00          1                    1.000
      601         21600.00          1                    1.000
      602         21600.00          1                    1.000
      603         21600.00          1                    1.000
      604         21600.00          1                    1.000
      605         21600.00          1                    1.000
      606         21600.00          1                    1.000
      607         21600.00          1                    1.000
      608         21600.00          1                    1.000
      609         21600.00          1                    1.000
      610         21600.00          1                    1.000
      611         21600.00          1                    1.000
      612         21600.00          1                    1.000
      613         21600.00          1                    1.000
      614         21600.00          1                    1.000
      615         21600.00          1                    1.000
      616         21600.00          1                    1.000
      617         21600.00          1                    1.000
      618         21600.00          1                    1.000
      619         21600.00          1                    1.000
      620         21600.00          1                    1.000
      621         21600.00          1                    1.000
      622         21600.00          1                    1.000
      623         21600.00          1                    1.000
      624         21600.00          1                    1.000
      625         21600.00          1                    1.000
      626         21600.00          1                    1.000
      627         21600.00          1                    1.000
      628         21600.00          1                    1.000
      629         21600.00          1                    1.000
      630         21600.00          1                    1.000
      631         21600.00          1                    1.000
      632         21600.00          1                    1.000
      633         21600.00          1                    1.000
      634         21600.00          1                    1.000
      635         21600.00          1                    1.000
      636         21600.00          1                    1.000
      637         21600.00          1                    1.000
      638         21600.00          1                    1.000
      639         21600.00          1                    1.000
      640         21600.00          1                    1.000
      641         21600.00          1                    1.000
      642         21600.00          1                    1.000
      643         21600.00          1                    1.000
      644         21600.00          1                    1.000
      645         21600.00          1                    1.000
      646         21600.00          1                    1.000
      647         21600.00          1                    1.000
      648         21600.00          1                    1.000
      649         21600.00          1                    1.000
      650         21600.00          1                    1.000
      651         21600.00          1                    1.000
      652         21600.00          1                    1.000
      653         21600.00          1                    1.000
      654         21600.00          1                    1.000
      655         21600.00          1                    1.000
      656         21600.00          1                    1.000
      657         21600.00          1                    1.000
      658         21600.00          1                    1.000
      659         21600.00          1                    1.000
      660         21600.00          1                    1.000
      661         21600.00          1                    1.000
      662         21600.00          1                    1.000
      663         21600.00          1                    1.000
      664         21600.00          1                    1.000
      665         21600.00          1                    1.000
      666         21600.00          1                    1.000
      667         21600.00          1                    1.000
      668         21600.00          1                    1.000
      669         21600.00          1                    1.000
      670         21600.00          1                    1.000
      671         21600.00          1                    1.000
      672         21600.00          1                    1.000
      673         21600.00          1                    1.000
      674         21600.00          1                    1.000
      675         21600.00          1                    1.000
      676         21600.00          1                    1.000
      677         21600.00          1                    1.000
      678         21600.00          1                    1.000
      679         21600.00          1                    1.000
      680         21600.00          1                    1.000
      681         21600.00          1                    1.000
      682         21600.00          1                    1.000
      683         21600.00          1                    1.000
      684         21600.00          1                    1.000
      685         21600.00          1                    1.000
      686         21600.00          1                    1.000
      687         21600.00          1                    1.000
      688         21600.00          1                    1.000
      689         21600.00          1                    1.000
      690         21600.00          1                    1.000
      691         21600.00          1                    1.000
      692         21600.00          1                    1.000
      693         21600.00          1                    1.000
      694         21600.00          1                    1.000
      695         21600.00          1                    1.000
      696         21600.00          1                    1.000
      697         21600.00          1                    1.000
      698         21600.00          1                    1.000
      699         21600.00          1                    1.000
      700         21600.00          1                    1.000
      701         21600.00          1                    1.000
      702         21600.00          1                    1.000
      703         21600.00          1                    1.000
      704         21600.00          1                    1.000
      705         21600.00          1                    1.000
      706         21600.00          1                    1.000
      707         21600.00          1                    1.000
      708         21600.00          1                    1.000
      709         21600.00          1                    1.000
      710         21600.00          1                    1.000
      711         21600.00          1                    1.000
      712         21600.00          1                    1.000
      713         21600.00          1                    1.000
      714         21600.00          1                    1.000
      715         21600.00          1                    1.000
      716         21600.00          1                    1.000
      717         21600.00          1                    1.000
      718         21600.00          1                    1.000
      719         21600.00          1                    1.000
      720         21600.00          1                    1.000
      721         21600.00          1                    1.000
      722         21600.00          1                    1.000
      723         21600.00          1                    1.000
      724         21600.00          1                    1.000
      725         21600.00          1                    1.000
      726         21600.00          1                    1.000
      727         21600.00          1                    1.000
      728         21600.00          1                    1.000
      729         21600.00          1                    1.000
      730         21600.00          1                    1.000
      731         21600.00          1                    1.000
      732         21600.00          1                    1.000
      733         21600.00          1                    1.000
      734         21600.00          1                    1.000
      735         21600.00          1                    1.000
      736         21600.00          1                    1.000
      737         21600.00          1                    1.000
      738         21600.00          1                    1.000
      739         21600.00          1                    1.000
      740         21600.00          1                    1.000
      741         21600.00          1                    1.000
      742         21600.00          1                    1.000
      743         21600.00          1                    1.000
      744         21600.00          1                    1.000
      745         21600.00          1                    1.000
      746         21600.00          1                    1.000
      747         21600.00          1                    1.000
      748         21600.00          1                    1.000
      749         21600.00          1                    1.000
      750         21600.00          1                    1.000
      751         21600.00          1                    1.000
      752         21600.00          1                    1.000
      753         21600.00          1                    1.000
      754         21600.00          1                    1.000
      755         21600.00          1                    1.000
      756         21600.00          1                    1.000
      757         21600.00          1                    1.000
      758         21600.00          1                    1.000
      759         21600.00          1                    1.000
      760         21600.00          1                    1.000
      761         21600.00          1                    1.000
      762         21600.00          1                    1.000
      763         21600.00          1                    1.000
      764         21600.00          1                    1.000
      765         21600.00          1                    1.000
      766         21600.00          1                    1.000
      767         21600.00          1                    1.000
      768         21600.00          1                    1.000
      769         21600.00          1                    1.000
      770         21600.00          1                    1.000
      771         21600.00          1                    1.000
      772         21600.00          1                    1.000
      773         21600.00          1                    1.000
      774         21600.00          1                    1.000
      775         21600.00          1                    1.000
      776         21600.00          1                    1.000
      777         21600.00          1                    1.000
      778         21600.00          1                    1.000
      779         21600.00          1                    1.000
      780         21600.00          1                    1.000
      781         21600.00          1                    1.000
      782         21600.00          1                    1.000
      783         21600.00          1                    1.000
      784         21600.00          1                    1.000
      785         21600.00          1                    1.000
      786         21600.00          1                    1.000
      787         21600.00          1                    1.000
      788         21600.00          1                    1.000
      789         21600.00          1                    1.000
      790         21600.00          1                    1.000
      791         21600.00          1                    1.000
      792         21600.00          1                    1.000
      793         21600.00          1                    1.000
      794         21600.00          1                    1.000
      795         21600.00          1                    1.000
      796         21600.00          1                    1.000
      797         21600.00          1                    1.000
      798         21600.00          1                    1.000
      799         21600.00          1                    1.000
      800         21600.00          1                    1.000
      801         21600.00          1                    1.000
      802         21600.00          1                    1.000
      803         21600.00          1                    1.000
      804         21600.00          1                    1.000
      805         21600.00          1                    1.000
      806         21600.00          1                    1.000
      807         21600.00          1                    1.000
      808         21600.00          1                    1.000
      809         21600.00          1                    1.000
      810         21600.00          1                    1.000
      811         21600.00          1                    1.000
      812         21600.00          1                    1.000
      813         21600.00          1                    1.000
      814         21600.00          1                    1.000
      815         21600.00          1                    1.000
      816         21600.00          1                    1.000
      817         21600.00          1                    1.000
      818         21600.00          1                    1.000
      819         21600.00          1                    1.000
      820         21600.00          1                    1.000
      821         21600.00          1                    1.000
      822         21600.00          1                    1.000
      823         21600.00          1                    1.000
      824         21600.00          1                    1.000
      825         21600.00          1                    1.000
      826         21600.00          1                    1.000
      827         21600.00          1                    1.000
      828         21600.00          1                    1.000
      829         21600.00          1                    1.000
      830         21600.00          1                    1.000
      831         21600.00          1                    1.000
      832         21600.00          1                    1.000
      833         21600.00          1                    1.000
      834         21600.00          1                    1.000
      835         21600.00          1                    1.000
      836         21600.00          1                    1.000
      837         21600.00          1                    1.000
      838         21600.00          1                    1.000
      839         21600.00          1                    1.000
      840         21600.00          1                    1.000
      841         21600.00          1                    1.000
      842         21600.00          1                    1.000
      843         21600.00          1                    1.000
      844         21600.00          1                    1.000
      845         21600.00          1                    1.000
      846         21600.00          1                    1.000
      847         21600.00          1                    1.000
      848         21600.00          1                    1.000
      849         21600.00          1                    1.000
      850         21600.00          1                    1.000
      851         21600.00          1                    1.000
      852         21600.00          1                    1.000
      853         21600.00          1                    1.000
      854         21600.00          1                    1.000
      855         21600.00          1                    1.000
      856         21600.00          1                    1.000
      857         21600.00          1                    1.000
      858         21600.00          1                    1.000
      859         21600.00          1                    1.000
      860         21600.00          1                    1.000
      861         21600.00          1                    1.000
      862         21600.00          1                    1.000
      863         21600.00          1                    1.000
      864         21600.00          1                    1.000
      865         21600.00          1                    1.000
      866         21600.00          1                    1.000
      867         21600.00          1                    1.000
      868         21600.00          1                    1.000
      869         21600.00          1                    1.000
      870         21600.00          1                    1.000
      871         21600.00          1                    1.000
      872         21600.00          1                    1.000
      873         21600.00          1                    1.000
      874         21600.00          1                    1.000
      875         21600.00          1                    1.000
      876         21600.00          1                    1.000
      877         21600.00          1                    1.000
      878         21600.00          1                    1.000
      879         21600.00          1                    1.000
      880         21600.00          1                    1.000
      881         21600.00          1                    1.000
      882         21600.00          1                    1.000
      883         21600.00          1                    1.000
      884         21600.00          1                    1.000
      885         21600.00          1                    1.000
      886         21600.00          1                    1.000
      887         21600.00          1                    1.000
      888         21600.00          1                    1.000
      889         21600.00          1                    1.000
      890         21600.00          1                    1.000
      891         21600.00          1                    1.000
      892         21600.00          1                    1.000
      893         21600.00          1                    1.000
      894         21600.00          1                    1.000
      895         21600.00          1                    1.000
      896         21600.00          1                    1.000
      897         21600.00          1                    1.000
      898         21600.00          1                    1.000
      899         21600.00          1                    1.000
      900         21600.00          1                    1.000
      901         21600.00          1                    1.000
      902         21600.00          1                    1.000
      903         21600.00          1                    1.000
      904         21600.00          1                    1.000
      905         21600.00          1                    1.000
      906         21600.00          1                    1.000
      907         21600.00          1                    1.000
      908         21600.00          1                    1.000
      909         21600.00          1                    1.000
      910         21600.00          1                    1.000
      911         21600.00          1                    1.000
      912         21600.00          1                    1.000
      913         21600.00          1                    1.000
      914         21600.00          1                    1.000
      915         21600.00          1                    1.000
      916         21600.00          1                    1.000
      917         21600.00          1                    1.000
      918         21600.00          1                    1.000
      919         21600.00          1                    1.000
      920         21600.00          1                    1.000
      921         21600.00          1                    1.000
      922         21600.00          1                    1.000
      923         21600.00          1                    1.000
      924         21600.00          1                    1.000
      925         21600.00          1                    1.000
      926         21600.00          1                    1.000
      927         21600.00          1                    1.000
      928         21600.00          1                    1.000
      929         21600.00          1                    1.000
      930         21600.00          1                    1.000
      931         21600.00          1                    1.000
      932         21600.00          1                    1.000
      933         21600.00          1                    1.000
      934         21600.00          1                    1.000
      935         21600.00          1                    1.000
      936         21600.00          1                    1.000
      937         21600.00          1                    1.000
      938         21600.00          1                    1.000
      939         21600.00          1                    1.000
      940         21600.00          1                    1.000
      941         21600.00          1                    1.000
      942         21600.00          1                    1.000
      943         21600.00          1                    1.000
      944         21600.00          1                    1.000
      945         21600.00          1                    1.000
      946         21600.00          1                    1.000
      947         21600.00          1                    1.000
      948         21600.00          1                    1.000
      949         21600.00          1                    1.000
      950         21600.00          1                    1.000
      951         21600.00          1                    1.000
      952         21600.00          1                    1.000
      953         21600.00          1                    1.000
      954         21600.00          1                    1.000
      955         21600.00          1                    1.000
      956         21600.00          1                    1.000
      957         21600.00          1                    1.000
      958         21600.00          1                    1.000
      959         21600.00          1                    1.000
      960         21600.00          1                    1.000
      961         21600.00          1                    1.000
      962         21600.00          1                    1.000
      963         21600.00          1                    1.000
      964         21600.00          1                    1.000
      965         21600.00          1                    1.000
      966         21600.00          1                    1.000
      967         21600.00          1                    1.000
      968         21600.00          1                    1.000
      969         21600.00          1                    1.000
      970         21600.00          1                    1.000
      971         21600.00          1                    1.000
      972         21600.00          1                    1.000
      973         21600.00          1                    1.000
      974         21600.00          1                    1.000
      975         21600.00          1                    1.000
      976         21600.00          1                    1.000
      977         21600.00          1                    1.000
      978         21600.00          1                    1.000
      979         21600.00          1                    1.000
      980         21600.00          1                    1.000
      981         21600.00          1                    1.000
      982         21600.00          1                    1.000
      983         21600.00          1                    1.000
      984         21600.00          1                    1.000
      985         21600.00          1                    1.000
      986         21600.00          1                    1.000
      987         21600.00          1                    1.000
      988         21600.00          1                    1.000
      989         21600.00          1                    1.000
      990         21600.00          1                    1.000
      991         21600.00          1                    1.000
      992         21600.00          1                    1.000
      993         21600.00          1                    1.000
      994         21600.00          1                    1.000
      995         21600.00          1                    1.000
      996         21600.00          1                    1.000
      997         21600.00          1                    1.000
      998         21600.00          1                    1.000
      999         21600.00          1                    1.000
     1000         21600.00          1                    1.000
     1001         21600.00          1                    1.000
     1002         21600.00          1                    1.000
     1003         21600.00          1                    1.000
     1004         21600.00          1                    1.000
     1005         21600.00          1                    1.000
     1006         21600.00          1                    1.000
     1007         21600.00          1                    1.000
     1008         21600.00          1                    1.000
     1009         21600.00          1                    1.000
     1010         21600.00          1                    1.000
     1011         21600.00          1                    1.000
     1012         21600.00          1                    1.000
     1013         21600.00          1                    1.000
     1014         21600.00          1                    1.000
     1015         21600.00          1                    1.000
     1016         21600.00          1                    1.000
     1017         21600.00          1                    1.000
     1018         21600.00          1                    1.000
     1019         21600.00          1                    1.000
     1020         21600.00          1                    1.000
     1021         21600.00          1                    1.000
     1022         21600.00          1                    1.000
     1023         21600.00          1                    1.000
     1024         21600.00          1                    1.000
     1025         21600.00          1                    1.000
     1026         21600.00          1                    1.000
     1027         21600.00          1                    1.000
     1028         21600.00          1                    1.000
     1029         21600.00          1                    1.000
     1030         21600.00          1                    1.000
     1031         21600.00          1                    1.000
     1032         21600.00          1                    1.000
     1033         21600.00          1                    1.000
     1034         21600.00          1                    1.000
     1035         21600.00          1                    1.000
     1036         21600.00          1                    1.000
     1037         21600.00          1                    1.000
     1038         21600.00          1                    1.000
     1039         21600.00          1                    1.000
     1040         21600.00          1                    1.000
     1041         21600.00          1                    1.000
     1042         21600.00          1                    1.000
     1043         21600.00          1                    1.000
     1044         21600.00          1                    1.000
     1045         21600.00          1                    1.000
     1046         21600.00          1                    1.000
     1047         21600.00          1                    1.000
     1048         21600.00          1                    1.000
     1049         21600.00          1                    1.000
     1050         21600.00          1                    1.000
     1051         21600.00          1                    1.000
     1052         21600.00          1                    1.000
     1053         21600.00          1                    1.000
     1054         21600.00          1                    1.000
     1055         21600.00          1                    1.000
     1056         21600.00          1                    1.000
     1057         21600.00          1                    1.000
     1058         21600.00          1                    1.000
     1059         21600.00          1                    1.000
     1060         21600.00          1                    1.000
     1061         21600.00          1                    1.000
     1062         21600.00          1                    1.000
     1063         21600.00          1                    1.000
     1064         21600.00          1                    1.000
     1065         21600.00          1                    1.000
     1066         21600.00          1                    1.000
     1067         21600.00          1                    1.000
     1068         21600.00          1                    1.000
     1069         21600.00          1                    1.000
     1070         21600.00          1                    1.000
     1071         21600.00          1                    1.000
     1072         21600.00          1                    1.000
     1073         21600.00          1                    1.000
     1074         21600.00          1                    1.000
     1075         21600.00          1                    1.000
     1076         21600.00          1                    1.000
     1077         21600.00          1                    1.000
     1078         21600.00          1                    1.000
     1079         21600.00          1                    1.000
     1080         21600.00          1                    1.000
     1081         21600.00          1                    1.000
     1082         21600.00          1                    1.000
     1083         21600.00          1                    1.000
     1084         21600.00          1                    1.000
     1085         21600.00          1                    1.000
     1086         21600.00          1                    1.000
     1087         21600.00          1                    1.000
     1088         21600.00          1                    1.000
     1089         21600.00          1                    1.000
     1090         21600.00          1                    1.000
     1091         21600.00          1                    1.000
     1092         21600.00          1                    1.000
     1093         21600.00          1                    1.000
     1094         21600.00          1                    1.000
     1095         21600.00          1                    1.000
     1096         21600.00          1                    1.000
     1097         21600.00          1                    1.000
     1098         21600.00          1                    1.000
     1099         21600.00          1                    1.000
     1100         21600.00          1                    1.000
     1101         21600.00          1                    1.000
     1102         21600.00          1                    1.000
     1103         21600.00          1                    1.000
     1104         21600.00          1                    1.000
     1105         21600.00          1                    1.000
     1106         21600.00          1                    1.000
     1107         21600.00          1                    1.000
     1108         21600.00          1                    1.000
     1109         21600.00          1                    1.000
     1110         21600.00          1                    1.000
     1111         21600.00          1                    1.000
     1112         21600.00          1                    1.000
     1113         21600.00          1                    1.000
     1114         21600.00          1                    1.000
     1115         21600.00          1                    1.000
     1116         21600.00          1                    1.000
     1117         21600.00          1                    1.000
     1118         21600.00          1                    1.000
     1119         21600.00          1                    1.000
     1120         21600.00          1                    1.000
     1121         21600.00          1                    1.000
     1122         21600.00          1                    1.000
     1123         21600.00          1                    1.000
     1124         21600.00          1                    1.000
     1125         21600.00          1                    1.000
     1126         21600.00          1                    1.000
     1127         21600.00          1                    1.000
     1128         21600.00          1                    1.000
     1129         21600.00          1                    1.000
     1130         21600.00          1                    1.000
     1131         21600.00          1                    1.000
     1132         21600.00          1                    1.000
     1133         21600.00          1                    1.000
     1134         21600.00          1                    1.000
     1135         21600.00          1                    1.000
     1136         21600.00          1                    1.000
     1137         21600.00          1                    1.000
     1138         21600.00          1                    1.000
     1139         21600.00          1                    1.000
     1140         21600.00          1                    1.000
     1141         21600.00          1                    1.000
     1142         21600.00          1                    1.000
     1143         21600.00          1                    1.000
     1144         21600.00          1                    1.000
     1145         21600.00          1                    1.000
     1146         21600.00          1                    1.000
     1147         21600.00          1                    1.000
     1148         21600.00          1                    1.000
     1149         21600.00          1                    1.000
     1150         21600.00          1                    1.000
     1151         21600.00          1                    1.000
     1152         21600.00          1                    1.000
     1153         21600.00          1                    1.000
     1154         21600.00          1                    1.000
     1155         21600.00          1                    1.000
     1156         21600.00          1                    1.000
     1157         21600.00          1                    1.000
     1158         21600.00          1                    1.000
     1159         21600.00          1                    1.000
     1160         21600.00          1                    1.000
     1161         21600.00          1                    1.000
     1162         21600.00          1                    1.000
     1163         21600.00          1                    1.000
[...]
 INITIAL TIME STEP SIZE =   21600.00    

 SLN_1 OUTER ITERATION SUMMARY
 ----------------------------------------------------------------------------------------------------------------------------------------------------------------
                                OUTER      INNER  BACKTRACK  BACKTRACK        INCOMING        OUTGOING                    STEP   MAXIMUM CHANGE MODEL-(CELLID) OR
 OUTER ITERATION STEP       ITERATION  ITERATION       FLAG ITERATIONS        RESIDUAL        RESIDUAL  MAXIMUM CHANGE SUCCESS             MODEL-PACKAGE-(NUMBER)
 ----------------------------------------------------------------------------------------------------------------------------------------------------------------
 Backtracking                       1                     0          0  2.24932893E-03  2.24932893E-03                       *                                   
 Model                              1          1                                                        5.23874826E-03       *                     1_GWF-(1,3221)
 ----------------------------------------------------------------------------------------------------------------------------------------------------------------


 1 CALLS TO NUMERICAL SOLUTION IN TIME STEP 1 STRESS PERIOD 1448
 1 TOTAL ITERATIONS
 
    Solving:  Stress period:  1449    Time step:     1
 
1
 STRESS PERIOD NO. 1449, LENGTH =   21600.00    
 ------------------------------------------
 NUMBER OF TIME STEPS = 1
 MULTIPLIER FOR DELT =     1.000
 INITIAL TIME STEP SIZE =   21600.00    

 SLN_1 OUTER ITERATION SUMMARY
 ----------------------------------------------------------------------------------------------------------------------------------------------------------------
                                OUTER      INNER  BACKTRACK  BACKTRACK        INCOMING        OUTGOING                    STEP   MAXIMUM CHANGE MODEL-(CELLID) OR
 OUTER ITERATION STEP       ITERATION  ITERATION       FLAG ITERATIONS        RESIDUAL        RESIDUAL  MAXIMUM CHANGE SUCCESS             MODEL-PACKAGE-(NUMBER)
 ----------------------------------------------------------------------------------------------------------------------------------------------------------------
 Backtracking                       1                     0          0  2.22672364E-03  2.22672364E-03                       *                                   
 Model                              1          1                                                        4.84978094E-03       *                     1_GWF-(1,3221)
 ----------------------------------------------------------------------------------------------------------------------------------------------------------------


 1 CALLS TO NUMERICAL SOLUTION IN TIME STEP 1 STRESS PERIOD 1449
 1 TOTAL ITERATIONS
 
    Solving:  Stress period:  1450    Time step:     1
 
1
 STRESS PERIOD NO. 1450, LENGTH =   21600.00    
 ------------------------------------------
 NUMBER OF TIME STEPS = 1
 MULTIPLIER FOR DELT =     1.000
 INITIAL TIME STEP SIZE =   21600.00    

 SLN_1 OUTER ITERATION SUMMARY
 ----------------------------------------------------------------------------------------------------------------------------------------------------------------
                                OUTER      INNER  BACKTRACK  BACKTRACK        INCOMING        OUTGOING                    STEP   MAXIMUM CHANGE MODEL-(CELLID) OR
 OUTER ITERATION STEP       ITERATION  ITERATION       FLAG ITERATIONS        RESIDUAL        RESIDUAL  MAXIMUM CHANGE SUCCESS             MODEL-PACKAGE-(NUMBER)
 ----------------------------------------------------------------------------------------------------------------------------------------------------------------
 Backtracking                       1                     0          0  2.18908440E-03  2.18908440E-03                       *                                   
 Model                              1          1                                                        4.53348986E-03       *                     1_GWF-(1,3221)
 ----------------------------------------------------------------------------------------------------------------------------------------------------------------


 1 CALLS TO NUMERICAL SOLUTION IN TIME STEP 1 STRESS PERIOD 1450
 1 TOTAL ITERATIONS
 
    Solving:  Stress period:  1451    Time step:     1
 
1
 STRESS PERIOD NO. 1451, LENGTH =   21600.00    
 ------------------------------------------
 NUMBER OF TIME STEPS = 1
 MULTIPLIER FOR DELT =     1.000
 INITIAL TIME STEP SIZE =   21600.00    

 SLN_1 OUTER ITERATION SUMMARY
 ----------------------------------------------------------------------------------------------------------------------------------------------------------------
                                OUTER      INNER  BACKTRACK  BACKTRACK        INCOMING        OUTGOING                    STEP   MAXIMUM CHANGE MODEL-(CELLID) OR
 OUTER ITERATION STEP       ITERATION  ITERATION       FLAG ITERATIONS        RESIDUAL        RESIDUAL  MAXIMUM CHANGE SUCCESS             MODEL-PACKAGE-(NUMBER)
 ----------------------------------------------------------------------------------------------------------------------------------------------------------------
 Backtracking                       1                     0          0  2.16149388E-03  2.16149388E-03                       *                                   
 Model                              1          1                                                        4.27948583E-03       *                     1_GWF-(1,3222)
 ----------------------------------------------------------------------------------------------------------------------------------------------------------------


 1 CALLS TO NUMERICAL SOLUTION IN TIME STEP 1 STRESS PERIOD 1451
 1 TOTAL ITERATIONS
 
    Solving:  Stress period:  1452    Time step:     1
 
1
 STRESS PERIOD NO. 1452, LENGTH =   21600.00    
 ------------------------------------------
 NUMBER OF TIME STEPS = 1
 MULTIPLIER FOR DELT =     1.000
 INITIAL TIME STEP SIZE =   21600.00    

 SLN_1 OUTER ITERATION SUMMARY
 ----------------------------------------------------------------------------------------------------------------------------------------------------------------
                                OUTER      INNER  BACKTRACK  BACKTRACK        INCOMING        OUTGOING                    STEP   MAXIMUM CHANGE MODEL-(CELLID) OR
 OUTER ITERATION STEP       ITERATION  ITERATION       FLAG ITERATIONS        RESIDUAL        RESIDUAL  MAXIMUM CHANGE SUCCESS             MODEL-PACKAGE-(NUMBER)
 ----------------------------------------------------------------------------------------------------------------------------------------------------------------
 Backtracking                       1                     0          0  2.13435490E-03  2.13435490E-03                       *                                   
 Model                              1          1                                                        4.06785828E-03       *                     1_GWF-(1,3222)
 ----------------------------------------------------------------------------------------------------------------------------------------------------------------


 1 CALLS TO NUMERICAL SOLUTION IN TIME STEP 1 STRESS PERIOD 1452
 1 TOTAL ITERATIONS
 
    Solving:  Stress period:  1453    Time step:     1
 
1
 STRESS PERIOD NO. 1453, LENGTH =   21600.00    
 ------------------------------------------
 NUMBER OF TIME STEPS = 1
 MULTIPLIER FOR DELT =     1.000
 INITIAL TIME STEP SIZE =   21600.00    

 SLN_1 OUTER ITERATION SUMMARY
 ----------------------------------------------------------------------------------------------------------------------------------------------------------------
                                OUTER      INNER  BACKTRACK  BACKTRACK        INCOMING        OUTGOING                    STEP   MAXIMUM CHANGE MODEL-(CELLID) OR
 OUTER ITERATION STEP       ITERATION  ITERATION       FLAG ITERATIONS        RESIDUAL        RESIDUAL  MAXIMUM CHANGE SUCCESS             MODEL-PACKAGE-(NUMBER)
 ----------------------------------------------------------------------------------------------------------------------------------------------------------------
 Backtracking                       1                     0          0  2.25347167E-03  2.25347167E-03                       *                                   
 Model                              1          1                                                        3.90163715E-03       *                     1_GWF-(1,3322)
 ----------------------------------------------------------------------------------------------------------------------------------------------------------------


 1 CALLS TO NUMERICAL SOLUTION IN TIME STEP 1 STRESS PERIOD 1453
 1 TOTAL ITERATIONS
 
    Solving:  Stress period:  1454    Time step:     1
 
1
 STRESS PERIOD NO. 1454, LENGTH =   21600.00    
 ------------------------------------------
 NUMBER OF TIME STEPS = 1
 MULTIPLIER FOR DELT =     1.000
 INITIAL TIME STEP SIZE =   21600.00    

 SLN_1 OUTER ITERATION SUMMARY
 ----------------------------------------------------------------------------------------------------------------------------------------------------------------
                                OUTER      INNER  BACKTRACK  BACKTRACK        INCOMING        OUTGOING                    STEP   MAXIMUM CHANGE MODEL-(CELLID) OR
 OUTER ITERATION STEP       ITERATION  ITERATION       FLAG ITERATIONS        RESIDUAL        RESIDUAL  MAXIMUM CHANGE SUCCESS             MODEL-PACKAGE-(NUMBER)
 ----------------------------------------------------------------------------------------------------------------------------------------------------------------
 Backtracking                       1                     0          0  2.16484503E-03  2.16484503E-03                       *                                   
 Model                              1          1                                                        3.75260088E-03       *                     1_GWF-(1,3322)
 ----------------------------------------------------------------------------------------------------------------------------------------------------------------


 1 CALLS TO NUMERICAL SOLUTION IN TIME STEP 1 STRESS PERIOD 1454
 1 TOTAL ITERATIONS
 
    Solving:  Stress period:  1455    Time step:     1
 
1
 STRESS PERIOD NO. 1455, LENGTH =   21600.00    
 ------------------------------------------
 NUMBER OF TIME STEPS = 1
 MULTIPLIER FOR DELT =     1.000
 INITIAL TIME STEP SIZE =   21600.00    

 SLN_1 OUTER ITERATION SUMMARY
 ----------------------------------------------------------------------------------------------------------------------------------------------------------------
                                OUTER      INNER  BACKTRACK  BACKTRACK        INCOMING        OUTGOING                    STEP   MAXIMUM CHANGE MODEL-(CELLID) OR
 OUTER ITERATION STEP       ITERATION  ITERATION       FLAG ITERATIONS        RESIDUAL        RESIDUAL  MAXIMUM CHANGE SUCCESS             MODEL-PACKAGE-(NUMBER)
 ----------------------------------------------------------------------------------------------------------------------------------------------------------------
 Backtracking                       1                     0          0  2.13778760E-03  2.13778760E-03                       *                                   
 Model                              1          1                                                        3.62202230E-03       *                     1_GWF-(1,3322)
 ----------------------------------------------------------------------------------------------------------------------------------------------------------------


 1 CALLS TO NUMERICAL SOLUTION IN TIME STEP 1 STRESS PERIOD 1455
 1 TOTAL ITERATIONS
 
    Solving:  Stress period:  1456    Time step:     1
 
1
 STRESS PERIOD NO. 1456, LENGTH =   21600.00    
 ------------------------------------------
 NUMBER OF TIME STEPS = 1
 MULTIPLIER FOR DELT =     1.000
 INITIAL TIME STEP SIZE =   21600.00    

 SLN_1 OUTER ITERATION SUMMARY
 ----------------------------------------------------------------------------------------------------------------------------------------------------------------
                                OUTER      INNER  BACKTRACK  BACKTRACK        INCOMING        OUTGOING                    STEP   MAXIMUM CHANGE MODEL-(CELLID) OR
 OUTER ITERATION STEP       ITERATION  ITERATION       FLAG ITERATIONS        RESIDUAL        RESIDUAL  MAXIMUM CHANGE SUCCESS             MODEL-PACKAGE-(NUMBER)
 ----------------------------------------------------------------------------------------------------------------------------------------------------------------
 Backtracking                       1                     0          0  2.12487378E-03  2.12487378E-03                       *                                   
 Model                              1          1                                                        3.50708797E-03       *                     1_GWF-(1,3322)
 ----------------------------------------------------------------------------------------------------------------------------------------------------------------


 1 CALLS TO NUMERICAL SOLUTION IN TIME STEP 1 STRESS PERIOD 1456
 1 TOTAL ITERATIONS
 
    Solving:  Stress period:  1457    Time step:     1
 
1
 STRESS PERIOD NO. 1457, LENGTH =   21600.00    
 ------------------------------------------
 NUMBER OF TIME STEPS = 1
 MULTIPLIER FOR DELT =     1.000
 INITIAL TIME STEP SIZE =   21600.00    

 SLN_1 OUTER ITERATION SUMMARY
 ----------------------------------------------------------------------------------------------------------------------------------------------------------------
                                OUTER      INNER  BACKTRACK  BACKTRACK        INCOMING        OUTGOING                    STEP   MAXIMUM CHANGE MODEL-(CELLID) OR
 OUTER ITERATION STEP       ITERATION  ITERATION       FLAG ITERATIONS        RESIDUAL        RESIDUAL  MAXIMUM CHANGE SUCCESS             MODEL-PACKAGE-(NUMBER)
 ----------------------------------------------------------------------------------------------------------------------------------------------------------------
 Backtracking                       1                     0          0  2.12987423E-03  2.12987423E-03                       *                                   
 Model                              1          1                                                        3.42042137E-03       *                     1_GWF-(1,3323)
 ----------------------------------------------------------------------------------------------------------------------------------------------------------------


 1 CALLS TO NUMERICAL SOLUTION IN TIME STEP 1 STRESS PERIOD 1457
 1 TOTAL ITERATIONS
 
    Solving:  Stress period:  1458    Time step:     1
 
1
 STRESS PERIOD NO. 1458, LENGTH =   21600.00    
 ------------------------------------------
 NUMBER OF TIME STEPS = 1
 MULTIPLIER FOR DELT =     1.000
 INITIAL TIME STEP SIZE =   21600.00    

 SLN_1 OUTER ITERATION SUMMARY
 ----------------------------------------------------------------------------------------------------------------------------------------------------------------
                                OUTER      INNER  BACKTRACK  BACKTRACK        INCOMING        OUTGOING                    STEP   MAXIMUM CHANGE MODEL-(CELLID) OR
 OUTER ITERATION STEP       ITERATION  ITERATION       FLAG ITERATIONS        RESIDUAL        RESIDUAL  MAXIMUM CHANGE SUCCESS             MODEL-PACKAGE-(NUMBER)
 ----------------------------------------------------------------------------------------------------------------------------------------------------------------
 Backtracking                       1                     0          0  2.11103196E-03  2.11103196E-03                       *                                   
 Model                              1          1                                                        3.33400487E-03       *                     1_GWF-(1,3423)
 ----------------------------------------------------------------------------------------------------------------------------------------------------------------


 1 CALLS TO NUMERICAL SOLUTION IN TIME STEP 1 STRESS PERIOD 1458
 1 TOTAL ITERATIONS
 
    Solving:  Stress period:  1459    Time step:     1
 
1
 STRESS PERIOD NO. 1459, LENGTH =   21600.00    
 ------------------------------------------
 NUMBER OF TIME STEPS = 1
 MULTIPLIER FOR DELT =     1.000
 INITIAL TIME STEP SIZE =   21600.00    

 SLN_1 OUTER ITERATION SUMMARY
 ----------------------------------------------------------------------------------------------------------------------------------------------------------------
                                OUTER      INNER  BACKTRACK  BACKTRACK        INCOMING        OUTGOING                    STEP   MAXIMUM CHANGE MODEL-(CELLID) OR
 OUTER ITERATION STEP       ITERATION  ITERATION       FLAG ITERATIONS        RESIDUAL        RESIDUAL  MAXIMUM CHANGE SUCCESS             MODEL-PACKAGE-(NUMBER)
 ----------------------------------------------------------------------------------------------------------------------------------------------------------------
 Backtracking                       1                     0          0  2.08455738E-03  2.08455738E-03                       *                                   
 Model                              1          1                                                        3.25576347E-03       *                     1_GWF-(1,3423)
 ----------------------------------------------------------------------------------------------------------------------------------------------------------------


 1 CALLS TO NUMERICAL SOLUTION IN TIME STEP 1 STRESS PERIOD 1459
 1 TOTAL ITERATIONS
 
    Solving:  Stress period:  1460    Time step:     1
 
1
 STRESS PERIOD NO. 1460, LENGTH =   21600.00    
 ------------------------------------------
 NUMBER OF TIME STEPS = 1
 MULTIPLIER FOR DELT =     1.000
 INITIAL TIME STEP SIZE =   21600.00    

 SLN_1 OUTER ITERATION SUMMARY
 ----------------------------------------------------------------------------------------------------------------------------------------------------------------
                                OUTER      INNER  BACKTRACK  BACKTRACK        INCOMING        OUTGOING                    STEP   MAXIMUM CHANGE MODEL-(CELLID) OR
 OUTER ITERATION STEP       ITERATION  ITERATION       FLAG ITERATIONS        RESIDUAL        RESIDUAL  MAXIMUM CHANGE SUCCESS             MODEL-PACKAGE-(NUMBER)
 ----------------------------------------------------------------------------------------------------------------------------------------------------------------
 Backtracking                       1                     0          0  2.06773634E-03  2.06773634E-03                       *                                   
 Model                              1          1                                                        3.18350416E-03       *                     1_GWF-(1,3423)
 ----------------------------------------------------------------------------------------------------------------------------------------------------------------


 1 CALLS TO NUMERICAL SOLUTION IN TIME STEP 1 STRESS PERIOD 1460
 1 TOTAL ITERATIONS

 MEMORY MANAGER TOTAL STORAGE BY DATA TYPE, IN MEGABYTES
 -------------------------------
                    ALLOCATED   
 DATA TYPE           MEMORY     
 -------------------------------
 Character        9.59400000E-03
 Logical          4.40000000E-05
 Integer          1.6455640     
 Real             3.3480240     
 -------------------------------
 Total            5.0032260     
 Virtual          0.0000000     
 -------------------------------


 
 Run end date and time (yyyy/mm/dd hh:mm:ss): 2024/02/21  9:15:58
 Elapsed run time:  2 Minutes, 33.784 Seconds
 Normal termination of simulation.
