                                   MODFLOW 6
                U.S. GEOLOGICAL SURVEY MODULAR HYDROLOGIC MODEL
                          GROUNDWATER FLOW MODEL (GWF)
                        VERSION 6.4.1 Release 12/09/2022

   MODFLOW 6 compiled Apr 12 2023 19:02:29 with Intel(R) Fortran Intel(R) 64
   Compiler Classic for applications running on Intel(R) 64, Version 2021.7.0
                             Build 20220726_000000

This software has been approved for release by the U.S. Geological 
Survey (USGS). Although the software has been subjected to rigorous 
review, the USGS reserves the right to update the software as needed 
pursuant to further analysis and review. No warranty, expressed or 
implied, is made by the USGS or the U.S. Government as to the 
functionality of the software and related material nor shall the 
fact of release constitute any such warranty. Furthermore, the 
software is released on condition that neither the USGS nor the U.S. 
Government shall be held liable for any damages resulting from its 
authorized or unauthorized use. Also refer to the USGS Water 
Resources Software User Rights Notice for complete use, copyright, 
and distribution information.


As a work of the United States Government, this USGS product is 
in the public domain within the United States. You can copy, 
modify, distribute, and perform the work, even for commercial 
purposes, all without asking permission. Additionally, USGS 
waives copyright and related rights in the work worldwide 
through CC0 1.0 Universal Public Domain Dedication 
(https://creativecommons.org/publicdomain/zero/1.0/).

The following GNU Lesser General Public License (LGPL) libraries
are used in this USGS product:

    SPARSKIT version 2.0
      ilut, luson, and qsplit 
      (https://www-users.cse.umn.edu/~saad/software/SPARSKIT/)

    RCM - Reverse Cuthill McKee Ordering
      (https://people.math.sc.edu/Burkardt/f_src/rcm/rcm.html)

    BLAS - Basic Linear Algebra Subprograms Level 1
      (https://people.math.sc.edu/Burkardt/f_src/blas1_d/blas1_d.html)

    SPARSEKIT - Sparse Matrix Utility Package
      amux, dperm, dvperm, rperm, and cperm
      (https://people.sc.fsu.edu/~jburkardt/f77_src/sparsekit/sparsekit.html)

The following BSD-3 License libraries are used in this USGS product:

    Modern Fortran DAG Library
      Copyright (c) 2018, Jacob Williams
      All rights reserved.
      (https://github.com/jacobwilliams/daglib)

MODFLOW 6 compiler options: -Ilinux/obj_mf6 -O2 -no-heap-arrays -fpe0
-traceback -fpp -module linux/mod_mf6/ -c -o linux/obj_mf6/compilerversion.o

System command used to initiate simulation:
/home/janek/MODFLOW/linux/mf6

MODFLOW was compiled using uniform precision.

Real Variables
  KIND: 8
  TINY (smallest non-zero value):    2.225074-308
  HUGE (largest value):    1.797693+308
  PRECISION: 15
  SIZE IN BITS: 64

Integer Variables
  KIND: 4
  HUGE (largest value): 2147483647
  SIZE IN BITS: 32

Long Integer Variables
  KIND: 8
  HUGE (largest value): 9223372036854775807
  SIZE IN BITS: 64

Logical Variables
  KIND: 4
  SIZE IN BITS: 32
 

 OPENED dummy.disv
 FILE TYPE:DISV6                  UNIT 1005   STATUS:OLD                 
 FORMAT:FORMATTED              ACCESS:SEQUENTIAL          
 ACTION:READ                


 OPENED dummy.npf
 FILE TYPE:NPF6                   UNIT 1006   STATUS:OLD                 
 FORMAT:FORMATTED              ACCESS:SEQUENTIAL          
 ACTION:READ                


 OPENED dummy.ic
 FILE TYPE:IC6                    UNIT 1007   STATUS:OLD                 
 FORMAT:FORMATTED              ACCESS:SEQUENTIAL          
 ACTION:READ                


 OPENED dummy.ghb
 FILE TYPE:GHB6                   UNIT 1008   STATUS:OLD                 
 FORMAT:FORMATTED              ACCESS:SEQUENTIAL          
 ACTION:READ                


 OPENED dummy.rch
 FILE TYPE:RCH6                   UNIT 1009   STATUS:OLD                 
 FORMAT:FORMATTED              ACCESS:SEQUENTIAL          
 ACTION:READ                


 OPENED dummy.wel
 FILE TYPE:WEL6                   UNIT 1010   STATUS:OLD                 
 FORMAT:FORMATTED              ACCESS:SEQUENTIAL          
 ACTION:READ                


 OPENED dummy.riv
 FILE TYPE:RIV6                   UNIT 1011   STATUS:OLD                 
 FORMAT:FORMATTED              ACCESS:SEQUENTIAL          
 ACTION:READ                


 OPENED dummy.oc
 FILE TYPE:OC6                    UNIT 1012   STATUS:OLD                 
 FORMAT:FORMATTED              ACCESS:SEQUENTIAL          
 ACTION:READ                

 NAMEFILE OPTIONS:
    FLOWS WILL BE SAVED TO BUDGET FILE SPECIFIED IN OUTPUT CONTROL

 DISV -- VERTEX GRID DISCRETIZATION PACKAGE, VERSION 1 : 12/23/2015 - INPUT READ FROM UNIT 1005


 Loading input for DUMMY/DISV
 # File generated by Flopy version 3.5.0 on 01/17/2024 at 11:16:58.
   XORIGIN = .000000000000000
   YORIGIN = .000000000000000
   ANGROT = .000000000000000
   NLAY = 2
   NCPL = 616
   NVERT = 774
   TOP = 100.0000000000000
   BOTM = variable 2D double precision array ranging from 50.00000000000000 to 75.00000000000000
   IDOMAIN = 1
   IV = variable 1D integer array ranging from 1 to 774
   XV = variable 1D double precision array ranging from .000000000000000 to 1000.000000000000
   YV = variable 1D double precision array ranging from .000000000000000 to 1000.000000000000
   ICELL2D = variable 1D integer array ranging from 1 to 616
   XC = variable 1D double precision array ranging from 6.250000000000000 to 993.7500000000000
   YC = variable 1D double precision array ranging from 50.00000000000000 to 950.0000000000000
   NCVERT = variable 1D integer array ranging from 5 to 9
   ICVERT = variable 1D integer array ranging from 1 to 774
 Loading input complete...

 Setting Discretization Options
    Model length unit [0=UND, 1=FEET, 2=METERS, 3=CENTIMETERS] set as 2
    XORIGIN = .000000000000000
    YORIGIN = .000000000000000
    ANGROT = .000000000000000
 End Setting Discretization Options

 Setting Discretization Dimensions
    NLAY = 2
    NCPL = 616
    NVERT = 774
 End Setting Discretization Dimensions

 Setting Discretization Griddata
    TOP set from input file
    BOTM set from input file
    IDOMAIN set from input file
 End Setting Discretization Griddata

 Discretization Vertex data loaded
 Discretization Cell2d data loaded

 NPF -- NODE PROPERTY FLOW PACKAGE, VERSION 1, 3/30/2015 INPUT READ FROM UNIT 1006

 Loading input for DUMMY/NPF
 # File generated by Flopy version 3.5.0 on 01/17/2024 at 11:16:58.
   ICELLTYPE = 0
   K = variable 1D double precision array ranging from .2491501900000000 to 22.38518008000000
 Loading input complete...

 Setting NPF Options
 End Setting NPF Options

 Setting NPF Griddata
    ICELLTYPE set from input file
    K set from input file
    K33 not provided.  Setting K33 = K.
    K22 not provided.  Setting K22 = K.
 End Setting NPF Griddata


 WEL   -- WEL PACKAGE, VERSION 8, 2/22/2014 INPUT READ FROM UNIT 1010
 # File generated by Flopy version 3.5.0 on 01/17/2024 at 11:16:58.

 PROCESSING WEL OPTIONS
 END OF WEL OPTIONS

 PROCESSING WEL DIMENSIONS
    MAXBOUND =       2
 END OF WEL DIMENSIONS

 RIV   -- RIV PACKAGE, VERSION 8, 2/22/2014 INPUT READ FROM UNIT 1011
 # File generated by Flopy version 3.5.0 on 01/17/2024 at 11:16:58.

 PROCESSING RIV OPTIONS
 END OF RIV OPTIONS

 PROCESSING RIV DIMENSIONS
    MAXBOUND =      98
 END OF RIV DIMENSIONS

 GHB   -- GHB PACKAGE, VERSION 8, 2/22/2014 INPUT READ FROM UNIT 1008
 # File generated by Flopy version 3.5.0 on 01/17/2024 at 11:16:58.

 PROCESSING GHB OPTIONS
 END OF GHB OPTIONS

 PROCESSING GHB DIMENSIONS
    MAXBOUND =      36
 END OF GHB DIMENSIONS

 RCH   -- RCH PACKAGE, VERSION 8, 2/22/2014 INPUT READ FROM UNIT 1009
 # File generated by Flopy version 3.5.0 on 01/17/2024 at 11:16:58.

 PROCESSING RCH OPTIONS
 END OF RCH OPTIONS

 PROCESSING RCH DIMENSIONS
    MAXBOUND =     616
 END OF RCH DIMENSIONS

 IC -- INITIAL CONDITIONS PACKAGE, VERSION 8, 3/28/2015 INPUT READ FROM UNIT 1007
 # File generated by Flopy version 3.5.0 on 01/17/2024 at 11:16:58.
 PROCESSING GRIDDATA
 END PROCESSING GRIDDATA
    BINARY GRID INFORMATION WILL BE WRITTEN TO:
      UNIT NUMBER: 1014
      FILE NAME: /home/janek/Documents/Python/PhD_research/Corellation_Estimation/DummyModel/ModelFiles/dummy.disv.grb

 OPENED /home/janek/Documents/Python/PhD_research/Corellation_Estimation/DummyModel/ModelFiles/dummy.disv.grb
 FILE TYPE:DATA(BINARY)   UNIT 1014   STATUS:REPLACE             
 FORMAT:UNFORMATTED            ACCESS:STREAM              
 ACTION:READWRITE           

      THE LAST TIME STEP WILL BE PRINTED
      THE LAST TIME STEP WILL BE PRINTED
 # File generated by Flopy version 3.5.0 on 01/17/2024 at 11:16:58.

 PROCESSING OC OPTIONS

    BUDGET INFORMATION WILL BE WRITTEN TO:
      UNIT NUMBER: 1015
      FILE NAME: dummy.cbb

 OPENED dummy.cbb
 FILE TYPE:DATA(BINARY)   UNIT 1015   STATUS:REPLACE             
 FORMAT:UNFORMATTED            ACCESS:STREAM              
 ACTION:READWRITE           

    HEAD INFORMATION WILL BE WRITTEN TO:
      UNIT NUMBER: 1016
      FILE NAME: dummy.hds

 OPENED dummy.hds
 FILE TYPE:DATA(BINARY)   UNIT 1016   STATUS:REPLACE             
 FORMAT:UNFORMATTED            ACCESS:STREAM              
 ACTION:READWRITE           

 END OF OC OPTIONS

start timestep kper="1" kstp="1" mode="normal"


 BEGIN READING OUTPUT CONTROL FOR STRESS PERIOD 1
      ALL TIME STEPS WILL BE SAVED
      ALL TIME STEPS WILL BE SAVED
      THE LAST TIME STEP WILL BE PRINTED

 END READING OUTPUT CONTROL FOR STRESS PERIOD 1
 UBDSV1 SAVING     FLOW-JA-FACE ON UNIT   1015 AT TIME STEP      1, STRESS PERIOD      1
 UBDSV06 SAVING              WEL IN MODEL DUMMY            PACKAGE DUMMY           CONNECTED TO MODEL DUMMY            PACKAGE WEL_0            ON UNIT   1015 AT TIME STEP      1, STRESS PERIOD      1
 UBDSV06 SAVING              RIV IN MODEL DUMMY            PACKAGE DUMMY           CONNECTED TO MODEL DUMMY            PACKAGE RIV_0            ON UNIT   1015 AT TIME STEP      1, STRESS PERIOD      1
 UBDSV06 SAVING              GHB IN MODEL DUMMY            PACKAGE DUMMY           CONNECTED TO MODEL DUMMY            PACKAGE GHB_0            ON UNIT   1015 AT TIME STEP      1, STRESS PERIOD      1
 UBDSV06 SAVING              RCH IN MODEL DUMMY            PACKAGE DUMMY           CONNECTED TO MODEL DUMMY            PACKAGE RCH_0            ON UNIT   1015 AT TIME STEP      1, STRESS PERIOD      1
1
  HEAD IN LAYER   1 AT END OF TIME STEP   1 IN STRESS PERIOD    1
  ---------------------------------------------------------------------------

            1           2           3           4           5           6           7           8           9          10
           11          12          13          14          15          16          17          18          19          20
           21          22          23          24          25          26          27          28          29          30
           31          32          33          34          35          36          37          38          39          40
           41          42          43          44          45          46          47          48          49          50
           51          52          53          54          55          56          57          58          59          60
           61          62          63          64          65          66          67          68          69          70
           71          72          73          74          75          76          77          78          79          80
           81          82          83          84          85          86          87          88          89          90
           91          92          93          94          95          96          97          98          99         100
          101         102         103         104         105         106         107         108         109         110
          111         112         113         114         115         116         117         118         119         120
          121         122         123         124         125         126         127         128         129         130
          131         132         133         134         135         136         137         138         139         140
          141         142         143         144         145         146         147         148         149         150
          151         152         153         154         155         156         157         158         159         160
          161         162         163         164         165         166         167         168         169         170
          171         172         173         174         175         176         177         178         179         180
          181         182         183         184         185         186         187         188         189         190
          191         192         193         194         195         196         197         198         199         200
          201         202         203         204         205         206         207         208         209         210
          211         212         213         214         215         216         217         218         219         220
          221         222         223         224         225         226         227         228         229         230
          231         232         233         234         235         236         237         238         239         240
          241         242         243         244         245         246         247         248         249         250
          251         252         253         254         255         256         257         258         259         260
          261         262         263         264         265         266         267         268         269         270
          271         272         273         274         275         276         277         278         279         280
          281         282         283         284         285         286         287         288         289         290
          291         292         293         294         295         296         297         298         299         300
          301         302         303         304         305         306         307         308         309         310
          311         312         313         314         315         316         317         318         319         320
          321         322         323         324         325         326         327         328         329         330
          331         332         333         334         335         336         337         338         339         340
          341         342         343         344         345         346         347         348         349         350
          351         352         353         354         355         356         357         358         359         360
          361         362         363         364         365         366         367         368         369         370
          371         372         373         374         375         376         377         378         379         380
          381         382         383         384         385         386         387         388         389         390
          391         392         393         394         395         396         397         398         399         400
          401         402         403         404         405         406         407         408         409         410
          411         412         413         414         415         416         417         418         419         420
          421         422         423         424         425         426         427         428         429         430
          431         432         433         434         435         436         437         438         439         440
          441         442         443         444         445         446         447         448         449         450
          451         452         453         454         455         456         457         458         459         460
          461         462         463         464         465         466         467         468         469         470
          471         472         473         474         475         476         477         478         479         480
          481         482         483         484         485         486         487         488         489         490
          491         492         493         494         495         496         497         498         499         500
          501         502         503         504         505         506         507         508         509         510
          511         512         513         514         515         516         517         518         519         520
          521         522         523         524         525         526         527         528         529         530
          531         532         533         534         535         536         537         538         539         540
          541         542         543         544         545         546         547         548         549         550
          551         552         553         554         555         556         557         558         559         560
          561         562         563         564         565         566         567         568         569         570
          571         572         573         574         575         576         577         578         579         580
          581         582         583         584         585         586         587         588         589         590
          591         592         593         594         595         596         597         598         599         600
          601         602         603         604         605         606         607         608         609         610
          611         612         613         614         615         616
 ........................................................................................................................
   1    74.23       74.21       74.17       74.10       73.99       73.85       73.70       73.52       73.30       73.05    
        74.24       74.23       74.26       74.24       74.22       74.25       74.22       74.21       74.21       74.20    
        74.20       74.20       74.19       74.20       74.18       74.19       74.21       74.20       74.14       74.03    
        73.89       73.73       73.54       73.29       73.00       74.31       74.27       74.24       74.30       74.28    
        74.40       74.38       74.20       74.18       74.18       74.18       74.17       74.21       74.20       74.18    
        74.20       74.20       74.21       74.25       74.25       74.23       74.25       74.27       74.28       74.35    
        74.35       74.27       74.27       74.35       74.32       74.24       74.13       73.98       73.80       73.59    
        73.36       73.21       73.39       73.21       72.99       72.79       72.96       72.75       72.64       72.73    
        72.58       74.55       74.53       74.48       74.39       74.27       74.12       73.95       73.87       74.03    
        73.95       73.74       73.63       73.85       73.80       73.90       73.85       73.82       73.88       73.85    
        73.73       73.67       73.79       73.76       73.83       73.79       73.73       73.70       73.75       73.71    
        73.48       73.40       73.53       73.44       73.30       73.20       73.35       73.24       73.59       73.51    
        73.46       73.54       73.49       73.65       73.61       73.64       73.59       73.55       73.48       73.53    
        73.47       73.41       73.37       73.43       73.38       73.31       73.25       73.30       73.24       73.37    
        73.25       73.06       72.93       73.13       73.07       73.16       73.09       72.99       72.93       73.01    
        72.93       72.74       72.59       72.52       72.61       72.52       72.82       72.73       72.81       72.72    
        72.62       72.51       72.61       72.52       73.17       73.08       73.15       73.08       72.95       73.09    
        72.95       72.76       72.59       72.77       72.64       74.78       74.75       74.69       74.58       74.46    
        74.30       74.23       74.39       74.32       74.29       74.37       74.34       74.14       74.05       74.01    
        74.11       74.06       74.04       74.08       74.07       74.24       74.21       74.30       74.28       74.32    
        74.30       74.26       74.25       74.28       74.25       74.17       74.15       74.20       74.16       74.11    
        74.06       74.10       74.05       74.21       74.15       74.19       74.14       74.06       73.96       73.94    
        73.99       73.98       73.92       73.88       73.93       73.88       74.02       73.99       74.03       73.98    
        73.89       73.82       73.78       73.82       73.77       73.70       73.77       73.68       73.98       73.87    
        73.94       73.85       73.69       73.59       73.48       73.56       73.46       73.29       73.46       73.27    
        73.02       72.77       73.03       72.83       74.96       74.95       75.09       75.08       74.94       74.91    
        75.06       75.03       74.88       74.84       75.00       74.95       74.77       74.72       74.89       74.82    
        74.79       74.87       74.84       74.64       74.58       74.74       74.71       74.80       74.76       74.67    
        74.64       74.72       74.68       74.66       74.70       74.68       74.50       74.46       74.54       74.51    
        74.42       74.39       74.38       74.41       74.40       74.47       74.46       74.49       74.48       74.44    
        74.41       74.44       74.39       74.60       74.57       74.56       74.60       74.56       74.64       74.64    
        74.66       74.63       74.60       74.54       74.57       74.52       74.52       74.46       74.50       74.45    
        74.38       74.44       74.35       74.36       74.32       74.36       74.31       74.27       74.23       74.26    
        74.21       74.30       74.21       74.14       74.03       74.10       74.01       74.19       74.01       73.85    
        73.64       73.79       73.59       73.32       72.97       75.19       75.19       75.27       75.26       75.21    
        75.34       75.33       75.39       75.38       75.32       75.32       75.36       75.35       75.37       75.37    
        75.35       75.35       75.39       75.39       75.36       75.36       75.32       75.31       75.39       75.39    
        75.36       75.36       75.38       75.35       75.36       75.37       75.19       75.14       75.12       75.19    
        75.18       75.29       75.28       75.34       75.35       75.36       75.33       75.34       75.33       75.31    
        75.30       75.25       75.24       75.28       75.27       75.24       75.23       75.28       75.27       75.32    
        75.30       75.29       75.27       75.27       75.25       75.24       75.23       75.10       75.08       75.16    
        75.15       75.06       75.03       75.12       75.09       75.07       75.11       75.10       75.22       75.21    
        75.25       75.24       75.20       75.20       75.22       75.19       75.21       75.17       75.18       75.17    
        75.16       75.15       75.15       75.13       75.12       75.10       75.12       75.08       75.00       74.97    
        75.06       75.05       75.10       75.08       75.03       75.01       75.06       75.04       74.94       74.90    
        74.88       74.92       74.91       75.00       74.99       74.99       74.97       74.96       74.93       74.93    
        74.91       75.09       75.06       75.07       75.04       75.01       75.02       74.97       74.95       74.89    
        74.91       74.85       74.86       74.84       74.90       74.87       74.82       74.80       74.84       74.82    
        74.89       74.85       74.87       74.84       74.79       74.78       74.76       74.76       74.73       74.73    
        74.69       74.70       74.66       74.71       74.64       74.82       74.75       74.78       74.72       74.61    
        74.64       74.59       74.61       74.57       74.50       74.54       74.46       74.33       74.42       74.26    
        73.97       73.70       73.51       73.63       73.43       73.23       72.94       75.32       75.32       75.28    
        75.28       75.32       75.31       75.27       75.26       75.22       75.21       75.30       75.27       75.24    
        75.22       75.24       75.20       75.20       75.17       75.17       75.13       75.13       75.04       75.05    
        74.98       74.94       74.83       74.87       74.77       74.69       74.53       74.62       74.48       74.22    
        73.92       73.75       73.87       73.68       73.52       73.37       73.30       73.31       73.22       73.49    
        73.37       73.46       73.33       73.20       73.14       73.12       73.05       73.06       73.16       73.01    
        73.17       73.07       72.87       72.93       72.61       72.85       72.99       72.95       73.02       73.16    
        73.08       73.09       73.09       73.06       73.07       73.03       72.88       75.13       75.06       74.94    
        74.74       74.47       74.13       73.73       73.40       73.19       73.10       73.24       73.18       73.42    
        73.27       73.09       73.01       73.12       73.03       72.85       75.07       75.01       74.88       74.69    
        74.42       74.09       73.73       73.39       73.10       72.85    
1
  HEAD IN LAYER   2 AT END OF TIME STEP   1 IN STRESS PERIOD    1
  ---------------------------------------------------------------------------

            1           2           3           4           5           6           7           8           9          10
           11          12          13          14          15          16          17          18          19          20
           21          22          23          24          25          26          27          28          29          30
           31          32          33          34          35          36          37          38          39          40
           41          42          43          44          45          46          47          48          49          50
           51          52          53          54          55          56          57          58          59          60
           61          62          63          64          65          66          67          68          69          70
           71          72          73          74          75          76          77          78          79          80
           81          82          83          84          85          86          87          88          89          90
           91          92          93          94          95          96          97          98          99         100
          101         102         103         104         105         106         107         108         109         110
          111         112         113         114         115         116         117         118         119         120
          121         122         123         124         125         126         127         128         129         130
          131         132         133         134         135         136         137         138         139         140
          141         142         143         144         145         146         147         148         149         150
          151         152         153         154         155         156         157         158         159         160
          161         162         163         164         165         166         167         168         169         170
          171         172         173         174         175         176         177         178         179         180
          181         182         183         184         185         186         187         188         189         190
          191         192         193         194         195         196         197         198         199         200
          201         202         203         204         205         206         207         208         209         210
          211         212         213         214         215         216         217         218         219         220
          221         222         223         224         225         226         227         228         229         230
          231         232         233         234         235         236         237         238         239         240
          241         242         243         244         245         246         247         248         249         250
          251         252         253         254         255         256         257         258         259         260
          261         262         263         264         265         266         267         268         269         270
          271         272         273         274         275         276         277         278         279         280
          281         282         283         284         285         286         287         288         289         290
          291         292         293         294         295         296         297         298         299         300
          301         302         303         304         305         306         307         308         309         310
          311         312         313         314         315         316         317         318         319         320
          321         322         323         324         325         326         327         328         329         330
          331         332         333         334         335         336         337         338         339         340
          341         342         343         344         345         346         347         348         349         350
          351         352         353         354         355         356         357         358         359         360
          361         362         363         364         365         366         367         368         369         370
          371         372         373         374         375         376         377         378         379         380
          381         382         383         384         385         386         387         388         389         390
          391         392         393         394         395         396         397         398         399         400
          401         402         403         404         405         406         407         408         409         410
          411         412         413         414         415         416         417         418         419         420
          421         422         423         424         425         426         427         428         429         430
          431         432         433         434         435         436         437         438         439         440
          441         442         443         444         445         446         447         448         449         450
          451         452         453         454         455         456         457         458         459         460
          461         462         463         464         465         466         467         468         469         470
          471         472         473         474         475         476         477         478         479         480
          481         482         483         484         485         486         487         488         489         490
          491         492         493         494         495         496         497         498         499         500
          501         502         503         504         505         506         507         508         509         510
          511         512         513         514         515         516         517         518         519         520
          521         522         523         524         525         526         527         528         529         530
          531         532         533         534         535         536         537         538         539         540
          541         542         543         544         545         546         547         548         549         550
          551         552         553         554         555         556         557         558         559         560
          561         562         563         564         565         566         567         568         569         570
          571         572         573         574         575         576         577         578         579         580
          581         582         583         584         585         586         587         588         589         590
          591         592         593         594         595         596         597         598         599         600
          601         602         603         604         605         606         607         608         609         610
          611         612         613         614         615         616
 ........................................................................................................................
   1    74.23       74.21       74.17       74.10       73.99       73.85       73.70       73.52       73.30       72.99    
        74.24       74.23       74.26       74.23       74.20       74.23       74.17       74.21       74.21       74.16    
        74.16       74.08       74.03       73.97       73.81       74.03       74.20       74.20       74.14       74.03    
        73.89       73.73       73.54       73.29       72.95       74.31       74.25       74.14       74.29       74.24    
        74.40       74.37       73.80       73.43       73.14       73.14       72.02       73.90       73.55       73.55    
        73.95       73.84       74.03       74.12       74.16       74.17       74.23       74.24       74.27       74.34    
        74.35       74.27       74.27       74.35       74.33       74.24       74.13       73.98       73.80       73.59    
        73.35       73.20       73.38       73.20       72.97       72.64       72.95       72.64       72.24       72.60    
        72.10       74.55       74.53       74.48       74.39       74.27       74.12       73.95       73.87       74.03    
        73.95       73.74       73.63       73.84       73.79       73.89       73.84       73.81       73.86       73.83    
        73.72       73.66       73.77       73.74       73.79       73.75       73.70       73.66       73.71       73.67    
        73.48       73.40       73.52       73.43       73.29       73.19       73.33       73.22       73.57       73.48    
        73.44       73.50       73.45       73.61       73.57       73.61       73.57       73.51       73.45       73.51    
        73.45       73.38       73.33       73.39       73.34       73.27       73.21       73.27       73.21       73.36    
        73.24       73.04       72.88       73.10       73.03       73.12       73.04       72.93       72.84       72.94    
        72.85       72.58       72.13       71.63       72.11       71.53       72.67       72.49       72.68       72.50    
        72.13       71.53       72.14       71.61       73.13       73.05       73.12       73.05       72.90       73.08    
        72.92       72.62       72.09       72.65       72.20       74.78       74.75       74.69       74.58       74.46    
        74.30       74.23       74.39       74.32       74.28       74.36       74.33       74.14       74.05       74.00    
        74.09       74.05       74.02       74.06       74.03       74.24       74.20       74.28       74.26       74.30    
        74.28       74.23       74.21       74.25       74.21       74.14       74.12       74.16       74.12       74.08    
        74.03       74.08       74.04       74.17       74.12       74.16       74.12       74.05       73.95       73.92    
        73.97       73.94       73.88       73.85       73.89       73.85       73.98       73.95       73.99       73.95    
        73.87       73.80       73.76       73.80       73.76       73.69       73.76       73.67       73.96       73.86    
        73.94       73.85       73.69       73.58       73.47       73.55       73.46       73.28       73.46       73.27    
        73.00       72.59       73.01       72.65       74.96       74.95       75.09       75.08       74.94       74.91    
        75.06       75.03       74.87       74.84       75.00       74.95       74.77       74.72       74.89       74.82    
        74.79       74.87       74.84       74.64       74.58       74.74       74.71       74.80       74.76       74.67    
        74.63       74.71       74.67       74.65       74.68       74.65       74.49       74.46       74.54       74.50    
        74.41       74.37       74.35       74.39       74.36       74.46       74.43       74.47       74.44       74.40    
        74.36       74.40       74.36       74.59       74.54       74.52       74.55       74.52       74.62       74.59    
        74.62       74.59       74.55       74.51       74.54       74.50       74.48       74.44       74.47       74.43    
        74.36       74.43       74.34       74.32       74.29       74.32       74.29       74.25       74.21       74.24    
        74.20       74.29       74.20       74.13       74.02       74.10       74.01       74.19       74.01       73.85    
        73.64       73.79       73.59       73.32       72.91       75.19       75.19       75.26       75.25       75.21    
        75.31       75.31       75.34       75.34       75.31       75.30       75.33       75.32       75.34       75.34    
        75.34       75.34       75.34       75.34       75.34       75.34       75.31       75.30       75.34       75.33    
        75.33       75.33       75.33       75.32       75.33       75.32       75.18       75.14       75.12       75.19    
        75.18       75.28       75.26       75.31       75.30       75.31       75.30       75.29       75.28       75.29    
        75.28       75.24       75.23       75.26       75.25       75.22       75.21       75.24       75.22       75.27    
        75.26       75.26       75.25       75.24       75.22       75.23       75.22       75.10       75.08       75.16    
        75.13       75.05       75.03       75.11       75.07       75.06       75.09       75.08       75.20       75.18    
        75.21       75.20       75.17       75.16       75.18       75.16       75.19       75.16       75.14       75.13    
        75.14       75.12       75.11       75.09       75.10       75.08       75.11       75.07       74.99       74.96    
        75.04       75.02       75.06       75.04       75.00       74.99       75.02       75.00       74.93       74.88    
        74.87       74.90       74.88       74.96       74.94       74.97       74.94       74.92       74.89       74.91    
        74.89       75.06       75.04       75.05       75.03       75.00       75.02       74.97       74.94       74.88    
        74.90       74.85       74.84       74.82       74.86       74.83       74.79       74.77       74.80       74.78    
        74.86       74.83       74.85       74.82       74.78       74.74       74.72       74.74       74.71       74.69    
        74.65       74.67       74.64       74.70       74.63       74.81       74.74       74.78       74.71       74.61    
        74.61       74.57       74.59       74.56       74.50       74.54       74.46       74.33       74.43       74.26    
        73.97       73.70       73.51       73.63       73.43       73.22       72.87       75.32       75.32       75.28    
        75.28       75.31       75.30       75.27       75.26       75.22       75.21       75.29       75.26       75.24    
        75.22       75.23       75.20       75.19       75.17       75.17       75.13       75.13       75.04       75.05    
        74.98       74.94       74.83       74.87       74.77       74.69       74.53       74.62       74.48       74.22    
        73.92       73.76       73.87       73.69       73.52       73.37       73.30       73.32       73.23       73.49    
        73.38       73.46       73.34       73.23       73.17       73.15       73.13       73.11       73.21       73.14    
        73.21       73.15       73.10       73.09       73.08       73.08       73.08       73.09       73.08       73.16    
        73.07       73.11       73.09       73.08       73.07       73.02       72.81       75.13       75.06       74.94    
        74.74       74.48       74.13       73.73       73.40       73.21       73.13       73.25       73.18       73.42    
        73.27       73.09       73.01       73.12       73.02       72.78       75.07       75.01       74.88       74.69    
        74.43       74.09       73.73       73.38       73.10       72.77    

 HEAD WILL BE SAVED ON UNIT 1016 AT END OF TIME STEP    1, STRESS PERIOD    1


  VOLUME BUDGET FOR ENTIRE MODEL AT END OF TIME STEP    1, STRESS PERIOD   1
  ---------------------------------------------------------------------------------------------------

     CUMULATIVE VOLUME      L**3       RATES FOR THIS TIME STEP      L**3/T          PACKAGE NAME    
     ------------------                 ------------------------                     ----------------

           IN:                                      IN:
           ---                                      ---
                 WEL =           0.0000                   WEL =           0.0000     WEL_0                            
                 RIV =        1693.4400                   RIV =        1693.4400     RIV_0                            
                 GHB =           0.0000                   GHB =           0.0000     GHB_0                            
                 RCH =         300.0000                   RCH =         300.0000     RCH_0                            

            TOTAL IN =        1993.4400              TOTAL IN =        1993.4400

          OUT:                                     OUT:
          ----                                     ----
                 WEL =         423.0000                   WEL =         423.0000     WEL_0                            
                 RIV =           0.0000                   RIV =           0.0000     RIV_0                            
                 GHB =        1575.4755                   GHB =        1575.4755     GHB_0                            
                 RCH =           0.0000                   RCH =           0.0000     RCH_0                            

           TOTAL OUT =        1998.4755             TOTAL OUT =        1998.4755

            IN - OUT =          -5.0355              IN - OUT =          -5.0355

 PERCENT DISCREPANCY =          -0.25     PERCENT DISCREPANCY =          -0.25




         TIME SUMMARY AT END OF TIME STEP    1 IN STRESS PERIOD    1
                    SECONDS     MINUTES      HOURS       DAYS        YEARS
                    -----------------------------------------------------------
   TIME STEP LENGTH  86400.      1440.0      24.000      1.0000     2.73785E-03
 STRESS PERIOD TIME  86400.      1440.0      24.000      1.0000     2.73785E-03
         TOTAL TIME  86400.      1440.0      24.000      1.0000     2.73785E-03


end timestep

