                                   MODFLOW 6
                U.S. GEOLOGICAL SURVEY MODULAR HYDROLOGIC MODEL
                          GROUNDWATER FLOW MODEL (GWF)
                            VERSION 6.4.4 02/13/2024

   MODFLOW 6 compiled Feb 13 2024 15:40:13 with Intel(R) Fortran Intel(R) 64
   Compiler Classic for applications running on Intel(R) 64, Version 2021.7.0
                             Build 20220726_000000

This software has been approved for release by the U.S. Geological 
Survey (USGS). Although the software has been subjected to rigorous 
review, the USGS reserves the right to update the software as needed 
pursuant to further analysis and review. No warranty, expressed or 
implied, is made by the USGS or the U.S. Government as to the 
functionality of the software and related material nor shall the 
fact of release constitute any such warranty. Furthermore, the 
software is released on condition that neither the USGS nor the U.S. 
Government shall be held liable for any damages resulting from its 
authorized or unauthorized use. Also refer to the USGS Water 
Resources Software User Rights Notice for complete use, copyright, 
and distribution information.


As a work of the United States Government, this USGS product is 
in the public domain within the United States. You can copy, 
modify, distribute, and perform the work, even for commercial 
purposes, all without asking permission. Additionally, USGS 
waives copyright and related rights in the work worldwide 
through CC0 1.0 Universal Public Domain Dedication 
(https://creativecommons.org/publicdomain/zero/1.0/).

The following GNU Lesser General Public License (LGPL) libraries
are used in this USGS product:

    SPARSKIT version 2.0
      ilut, luson, and qsplit 
      (https://www-users.cse.umn.edu/~saad/software/SPARSKIT/)

    RCM - Reverse Cuthill McKee Ordering
      (https://people.math.sc.edu/Burkardt/f_src/rcm/rcm.html)

    BLAS - Basic Linear Algebra Subprograms Level 1
      (https://people.math.sc.edu/Burkardt/f_src/blas1_d/blas1_d.html)

    SPARSEKIT - Sparse Matrix Utility Package
      amux, dperm, dvperm, rperm, and cperm
      (https://people.sc.fsu.edu/~jburkardt/f77_src/sparsekit/sparsekit.html)

The following BSD-3 License libraries are used in this USGS product:

    Modern Fortran DAG Library
      Copyright (c) 2018, Jacob Williams
      All rights reserved.
      (https://github.com/jacobwilliams/daglib)

MODFLOW 6 compiler options: /Isrc\libmf6core.a.p /Isrc /I..\src
/Isrc\libmf6_external.a.p /MTd /nologo /warn:general /warn:truncated_source
/stand:f08 /Zi /traceback /O2 /fpe:0 /heap-arrays:0 /traceback /fpp
/Qdiag-disable:7416 /Qdiag-disable:7025 /Qdiag-disable:5268
/Fdsrc\libmf6core.a.p\Utilities_compilerversion.F90.pdb
/module:src\libmf6core.a.p
/Fosrc/libmf6core.a.p/Utilities_compilerversion.F90.obj /c

System command used to initiate simulation:
C:\Users\janek\WRDAPP\mf6.4.4_win64\bin\mf6.exe

MODFLOW was compiled using uniform precision.

Real Variables
  KIND: 8
  TINY (smallest non-zero value):    2.225074-308
  HUGE (largest value):    1.797693+308
  PRECISION: 15
  SIZE IN BITS: 64

Integer Variables
  KIND: 4
  HUGE (largest value): 2147483647
  SIZE IN BITS: 32

Long Integer Variables
  KIND: 8
  HUGE (largest value): 9223372036854775807
  SIZE IN BITS: 64

Logical Variables
  KIND: 4
  SIZE IN BITS: 32
 
 NAMEFILE OPTIONS:
    FLOWS WILL BE SAVED TO BUDGET FILE SPECIFIED IN OUTPUT CONTROL
 END NAMEFILE OPTIONS:

 DISV -- VERTEX GRID DISCRETIZATION PACKAGE, VERSION 1 : 12/23/2015 - INPUT READ FROM MEMPATH: __INPUT__/REFERENCE/DISV                          


 Setting Discretization Options
    Model length unit [0=UND, 1=FEET, 2=METERS, 3=CENTIMETERS] set as 2
    XORIGIN = .000000000000000
    YORIGIN = .000000000000000
    ANGROT = .000000000000000
 End Setting Discretization Options

 Setting Discretization Dimensions
    NLAY = 1
    NCPL = 5000
    NVERT = 5151
 End Setting Discretization Dimensions

 Setting Discretization Griddata
    TOP set from input file
    BOTM set from input file
    IDOMAIN set from input file
 End Setting Discretization Griddata

 Discretization Vertex data loaded
 Discretization Cell2d data loaded

 NPF -- NODE PROPERTY FLOW PACKAGE, VERSION 1, 3/30/2015 INPUT READ FROM MEMPATH: __INPUT__/REFERENCE/NPF                           


 IC -- Initial Conditions Package, Version 8, 3/28/2015 input read from mempath: __INPUT__/REFERENCE/IC                            


 Setting NPF Options
 End Setting NPF Options

 Setting NPF Griddata
    ICELLTYPE set from input file
    K set from input file
    K33 not provided.  Setting K33 = K.
    K22 not provided.  Setting K22 = K.
 End Setting NPF Griddata


 WEL   -- WEL PACKAGE, VERSION 8, 2/22/2014 INPUT READ FROM MEMPATH: __INPUT__/REFERENCE/WEL_0                         

 PROCESSING WEL BASE OPTIONS
 END OF WEL BASE OPTIONS

 PROCESSING WEL OPTIONS
 END OF WEL OPTIONS

 PROCESSING WEL BASE DIMENSIONS
    MAXBOUND =       5
 END OF WEL BASE DIMENSIONS

 RIV   -- RIV PACKAGE, VERSION 8, 2/22/2014 INPUT READ FROM MEMPATH: __INPUT__/REFERENCE/RIV_0                         

 PROCESSING RIV BASE OPTIONS
 END OF RIV BASE OPTIONS

 PROCESSING RIV OPTIONS
 END OF RIV OPTIONS

 PROCESSING RIV BASE DIMENSIONS
    MAXBOUND =     100
 END OF RIV BASE DIMENSIONS

 RCH   -- RCH PACKAGE, VERSION 8, 2/22/2014 INPUT READ FROM MEMPATH: __INPUT__/REFERENCE/RCH_0                         

 PROCESSING RCH BASE OPTIONS
 END OF RCH BASE OPTIONS

 PROCESSING RCH OPTIONS
 END OF RCH OPTIONS

 PROCESSING RCH BASE DIMENSIONS
    MAXBOUND =    5000
 END OF RCH BASE DIMENSIONS

 CHD   -- CHD PACKAGE, VERSION 8, 2/22/2014 INPUT READ FROM MEMPATH: __INPUT__/REFERENCE/CHD_0                         

 PROCESSING CHD BASE OPTIONS
 END OF CHD BASE OPTIONS

 PROCESSING CHD BASE DIMENSIONS
    MAXBOUND =     100
 END OF CHD BASE DIMENSIONS
    STRT set from input file

 STO -- STORAGE PACKAGE, VERSION 1, 5/19/2014 INPUT READ FROM UNIT 1005


 # File generated by Flopy version 3.6.0 on 02/21/2024 at 09:06:27.
 PROCESSING STORAGE OPTIONS
    CELL-BY-CELL FLOW INFORMATION WILL BE SAVED TO BINARY FILE WHENEVER ICBCFL IS NOT ZERO.
 END OF STORAGE OPTIONS
 PROCESSING GRIDDATA

                 ICONVERT = 1

         SPECIFIC STORAGE =  0.1000000E-04

           SPECIFIC YIELD =  0.1500000    
 END PROCESSING GRIDDATA
    BINARY GRID INFORMATION WILL BE WRITTEN TO:
      UNIT NUMBER: 1016
      FILE NAME: Reference.disv.grb

 OPENED Reference.disv.grb
 FILE TYPE:DATA(BINARY)   UNIT 1016   STATUS:REPLACE             
 FORMAT:UNFORMATTED            ACCESS:STREAM              
 ACTION:READWRITE           

      THE LAST TIME STEP WILL BE PRINTED
      THE LAST TIME STEP WILL BE PRINTED
 # File generated by Flopy version 3.6.0 on 02/21/2024 at 09:06:27.

 PROCESSING OC OPTIONS

    BUDGET INFORMATION WILL BE WRITTEN TO:
      UNIT NUMBER: 1017
      FILE NAME: Reference.cbb

 OPENED Reference.cbb
 FILE TYPE:DATA(BINARY)   UNIT 1017   STATUS:REPLACE             
 FORMAT:UNFORMATTED            ACCESS:STREAM              
 ACTION:READWRITE           

    HEAD INFORMATION WILL BE WRITTEN TO:
      UNIT NUMBER: 1018
      FILE NAME: Reference.hds

 OPENED Reference.hds
 FILE TYPE:DATA(BINARY)   UNIT 1018   STATUS:REPLACE             
 FORMAT:UNFORMATTED            ACCESS:STREAM              
 ACTION:READWRITE           

 END OF OC OPTIONS

start timestep kper="1" kstp="1" mode="normal"


 BEGIN READING OUTPUT CONTROL FOR STRESS PERIOD 1
      ALL TIME STEPS WILL BE SAVED
      ALL TIME STEPS WILL BE SAVED
      THE LAST TIME STEP WILL BE PRINTED

 END READING OUTPUT CONTROL FOR STRESS PERIOD 1


 PROCESSING STORAGE PERIOD DATA
 END PROCESSING STORAGE PERIOD DATA


 STRESS PERIOD 1 IS STEADY-STATE

 UBDSV1 SAVING           STO-SS ON UNIT   1017 AT TIME STEP      1, STRESS PERIOD      1
 UBDSV1 SAVING           STO-SY ON UNIT   1017 AT TIME STEP      1, STRESS PERIOD      1
 UBDSV1 SAVING     FLOW-JA-FACE ON UNIT   1017 AT TIME STEP      1, STRESS PERIOD      1
 UBDSV06 SAVING              WEL IN MODEL REFERENCE        PACKAGE REFERENCE       CONNECTED TO MODEL REFERENCE        PACKAGE WEL_0            ON UNIT   1017 AT TIME STEP      1, STRESS PERIOD      1
 UBDSV06 SAVING              RIV IN MODEL REFERENCE        PACKAGE REFERENCE       CONNECTED TO MODEL REFERENCE        PACKAGE RIV_0            ON UNIT   1017 AT TIME STEP      1, STRESS PERIOD      1
 UBDSV06 SAVING              RCH IN MODEL REFERENCE        PACKAGE REFERENCE       CONNECTED TO MODEL REFERENCE        PACKAGE RCH_0            ON UNIT   1017 AT TIME STEP      1, STRESS PERIOD      1
 UBDSV06 SAVING              CHD IN MODEL REFERENCE        PACKAGE REFERENCE       CONNECTED TO MODEL REFERENCE        PACKAGE CHD_0            ON UNIT   1017 AT TIME STEP      1, STRESS PERIOD      1
1
  HEAD IN LAYER   1 AT END OF TIME STEP   1 IN STRESS PERIOD    1
  ---------------------------------------------------------------------------

 ........................................................................................................................................................................................................................................................................................................................................................................................................................................................................................................................................................................................................................................................................................................................................................................................................................................................................................................................................................................................................................................
   1    15.00       15.00       15.00       15.00       15.00       15.00       15.00       15.00       15.00       15.00    
        15.00       15.00       15.00       15.00       15.00       15.00       15.00       15.00       15.00       15.00    
        15.00       15.00       15.00       15.00       15.00       15.00       15.00       15.00       15.00       15.00    
        15.00       15.00       15.00       15.00       15.00       15.00       15.00       15.00       15.00       15.00    
        15.00       15.00       15.00       15.00       15.00       15.00       15.00       15.00       15.00       15.00    
        15.00       15.00       15.00       15.00       15.00       15.00       15.00       15.00       15.00       15.00    
        15.00       15.00       15.00       15.00       15.00       15.00       15.00       15.00       15.00       15.00    
        15.00       15.00       15.00       15.00       15.00       15.00       15.00       15.00       15.00       15.00    
        15.00       15.00       15.00       15.00       15.00       15.00       15.00       15.00       15.00       15.00    
        15.00       15.00       15.00       15.00       15.00       15.00       15.00       15.00       15.00       15.00    
        15.03       15.03       15.02       15.02       15.03       15.03       15.03       15.02       15.02       15.02    
        15.02       15.02       15.02       15.02       15.02       15.02       15.02       15.02       15.02       15.02    
        15.03       15.03       15.03       15.03       15.04       15.04       15.05       15.06       15.07       15.07    
        15.08       15.09       15.10       15.11       15.12       15.13       15.15       15.16       15.17       15.17    
        15.18       15.18       15.19       15.19       15.19       15.19       15.19       15.19       15.19       15.18    
        15.18       15.17       15.17       15.16       15.16       15.16       15.16       15.16       15.16       15.17    
        15.18       15.19       15.21       15.23       15.25       15.27       15.29       15.31       15.32       15.34    
        15.35       15.36       15.37       15.37       15.37       15.37       15.36       15.34       15.33       15.32    
        15.30       15.29       15.27       15.25       15.23       15.22       15.20       15.19       15.18       15.18    
        15.18       15.18       15.18       15.18       15.17       15.16       15.16       15.15       15.15       15.14    
        15.05       15.05       15.05       15.05       15.05       15.05       15.05       15.05       15.05       15.04    
        15.04       15.04       15.04       15.04       15.04       15.04       15.04       15.04       15.04       15.05    
        15.05       15.05       15.06       15.06       15.07       15.08       15.09       15.11       15.12       15.14    
        15.16       15.17       15.19       15.21       15.23       15.25       15.27       15.29       15.31       15.33    
        15.34       15.35       15.36       15.37       15.37       15.38       15.37       15.37       15.37       15.36    
        15.35       15.34       15.33       15.32       15.32       15.32       15.32       15.32       15.33       15.34    
        15.36       15.38       15.41       15.44       15.47       15.50       15.54       15.57       15.60       15.63    
        15.65       15.67       15.68       15.69       15.69       15.68       15.67       15.65       15.62       15.60    
        15.58       15.55       15.52       15.49       15.46       15.43       15.40       15.38       15.37       15.36    
        15.36       15.36       15.36       15.35       15.34       15.33       15.32       15.31       15.30       15.29    
        15.07       15.07       15.07       15.07       15.07       15.07       15.07       15.07       15.07       15.07    
        15.06       15.06       15.06       15.06       15.06       15.06       15.06       15.06       15.07       15.07    
        15.07       15.08       15.08       15.09       15.10       15.11       15.13       15.15       15.17       15.19    
        15.22       15.24       15.27       15.30       15.32       15.35       15.38       15.41       15.44       15.47    
        15.49       15.51       15.53       15.54       15.55       15.55       15.56       15.55       15.55       15.54    
        15.53       15.51       15.50       15.49       15.48       15.47       15.47       15.48       15.49       15.50    
        15.52       15.55       15.59       15.63       15.67       15.72       15.76       15.81       15.85       15.89    
        15.91       15.94       15.96       15.97       15.97       15.96       15.94       15.92       15.89       15.86    
        15.82       15.79       15.75       15.71       15.67       15.63       15.60       15.57       15.55       15.54    
        15.53       15.53       15.53       15.52       15.51       15.50       15.48       15.47       15.46       15.45    
        15.09       15.09       15.09       15.09       15.09       15.09       15.09       15.09       15.09       15.09    
        15.08       15.08       15.08       15.08       15.08       15.08       15.08       15.08       15.09       15.09    
        15.09       15.10       15.11       15.12       15.13       15.14       15.16       15.18       15.21       15.24    
        15.27       15.30       15.34       15.37       15.40       15.44       15.48       15.51       15.55       15.59    
        15.63       15.66       15.68       15.70       15.71       15.72       15.73       15.73       15.72       15.71    
        15.70       15.68       15.66       15.65       15.63       15.63       15.63       15.63       15.64       15.66    
        15.69       15.72       15.76       15.81       15.86       15.91       15.97       16.02       16.07       16.12    
        16.15       16.18       16.20       16.21       16.22       16.21       16.19       16.16       16.13       16.09    
        16.05       16.01       15.96       15.91       15.87       15.83       15.79       15.76       15.73       15.71    
        15.70       15.70       15.69       15.69       15.68       15.66       15.65       15.63       15.62       15.61    
        15.11       15.11       15.11       15.11       15.11       15.11       15.11       15.11       15.11       15.10    
        15.10       15.10       15.10       15.10       15.10       15.10       15.10       15.10       15.10       15.11    
        15.11       15.12       15.13       15.14       15.15       15.17       15.19       15.21       15.24       15.28    
        15.31       15.35       15.39       15.43       15.47       15.51       15.55       15.60       15.65       15.69    
        15.74       15.78       15.82       15.85       15.87       15.88       15.89       15.90       15.89       15.88    
        15.87       15.85       15.83       15.80       15.79       15.78       15.77       15.78       15.79       15.81    
        15.84       15.88       15.93       15.98       16.04       16.10       16.16       16.22       16.27       16.32    
        16.37       16.40       16.42       16.44       16.44       16.43       16.42       16.39       16.35       16.31    
        16.26       16.21       16.16       16.11       16.06       16.02       15.98       15.94       15.91       15.88    
        15.87       15.86       15.86       15.85       15.84       15.83       15.81       15.80       15.79       15.78    
        15.13       15.13       15.13       15.13       15.12       15.12       15.12       15.12       15.12       15.12    
        15.12       15.12       15.12       15.11       15.11       15.11       15.12       15.12       15.12       15.13    
        15.13       15.14       15.15       15.16       15.17       15.19       15.21       15.24       15.27       15.31    
        15.35       15.39       15.44       15.48       15.53       15.57       15.62       15.67       15.72       15.78    
        15.83       15.89       15.94       15.98       16.01       16.03       16.05       16.06       16.06       16.05    
        16.04       16.01       15.99       15.96       15.94       15.92       15.92       15.92       15.93       15.96    
        15.99       16.04       16.09       16.15       16.21       16.27       16.34       16.40       16.46       16.52    
        16.57       16.60       16.63       16.64       16.65       16.64       16.62       16.59       16.55       16.51    
        16.46       16.41       16.35       16.30       16.25       16.20       16.16       16.12       16.08       16.06    
        16.04       16.02       16.02       16.01       16.00       15.99       15.98       15.96       15.95       15.94    
        15.15       15.15       15.14       15.14       15.14       15.14       15.14       15.14       15.14       15.14    
        15.14       15.13       15.13       15.13       15.13       15.13       15.13       15.14       15.14       15.14    
        15.15       15.16       15.17       15.18       15.19       15.21       15.23       15.26       15.29       15.33    
        15.37       15.42       15.47       15.52       15.57       15.62       15.67       15.73       15.78       15.84    
        15.91       15.98       16.04       16.09       16.14       16.17       16.19       16.21       16.21       16.21    
        16.20       16.18       16.15       16.11       16.09       16.06       16.05       16.05       16.06       16.08    
        16.13       16.18       16.24       16.30       16.37       16.44       16.51       16.58       16.64       16.70    
        16.75       16.79       16.82       16.84       16.84       16.84       16.82       16.79       16.75       16.70    
        16.65       16.60       16.54       16.48       16.43       16.38       16.33       16.29       16.26       16.22    
        16.20       16.18       16.17       16.17       16.16       16.15       16.14       16.13       16.11       16.11    
        15.16       15.16       15.16       15.16       15.16       15.15       15.15       15.15       15.15       15.15    
        15.15       15.15       15.15       15.15       15.15       15.15       15.15       15.15       15.16       15.16    
        15.17       15.17       15.19       15.20       15.21       15.23       15.25       15.28       15.31       15.35    
        15.40       15.45       15.50       15.55       15.61       15.66       15.71       15.77       15.83       15.90    
        15.97       16.04       16.12       16.19       16.25       16.29       16.33       16.35       16.36       16.36    
        16.35       16.33       16.30       16.27       16.23       16.20       16.18       16.17       16.17       16.19    
        16.25       16.32       16.39       16.46       16.53       16.60       16.68       16.75       16.81       16.88    
        16.93       16.98       17.01       17.02       17.03       17.02       17.00       16.97       16.93       16.88    
        16.83       16.77       16.72       16.66       16.60       16.55       16.50       16.46       16.42       16.39    
        16.36       16.34       16.33       16.32       16.31       16.30       16.30       16.28       16.27       16.27    
        15.18       15.17       15.17       15.17       15.17       15.17       15.17       15.17       15.17       15.17    
        15.17       15.17       15.16       15.16       15.16       15.16       15.16       15.17       15.17       15.17    
        15.18       15.19       15.20       15.21       15.23       15.25       15.27       15.30       15.33       15.37    
        15.41       15.46       15.52       15.57       15.63       15.69       15.75       15.80       15.87       15.94    
        16.01       16.09       16.18       16.26       16.34       16.40       16.45       16.48       16.50       16.51    
        16.50       16.49       16.46       16.42       16.38       16.34       16.30       16.27       16.26       16.27    
        16.35       16.44       16.53       16.61       16.69       16.77       16.84       16.91       16.98       17.05    
        17.11       17.15       17.18       17.20       17.21       17.20       17.18       17.15       17.11       17.06    
        17.00       16.95       16.89       16.83       16.77       16.71       16.66       16.62       16.58       16.55    
        16.52       16.49       16.48       16.47       16.46       16.45       16.45       16.44       16.43       16.42    
        15.19       15.19       15.19       15.18       15.18       15.18       15.18       15.18       15.18       15.18    
        15.18       15.18       15.18       15.18       15.18       15.18       15.18       15.18       15.18       15.19    
        15.19       15.20       15.22       15.23       15.24       15.26       15.28       15.31       15.34       15.38    
        15.42       15.47       15.53       15.59       15.65       15.71       15.77       15.83       15.89       15.96    
        16.04       16.13       16.23       16.33       16.41       16.49       16.55       16.60       16.63       16.65    
        16.65       16.64       16.62       16.58       16.53       16.48       16.43       16.37       16.31       16.27    
        16.43       16.57       16.68       16.77       16.85       16.93       17.01       17.08       17.15       17.22    
        17.27       17.32       17.36       17.38       17.38       17.37       17.35       17.32       17.28       17.22    
        17.17       17.11       17.05       16.99       16.93       16.87       16.82       16.78       16.74       16.70    
        16.67       16.64       16.63       16.61       16.60       16.60       16.59       16.58       16.58       16.57    
        15.20       15.20       15.20       15.20       15.20       15.19       15.19       15.19       15.19       15.19    
        15.19       15.19       15.19       15.19       15.19       15.19       15.19       15.19       15.19       15.19    
        15.21       15.22       15.23       15.24       15.26       15.28       15.30       15.32       15.35       15.39    
        15.43       15.48       15.54       15.60       15.66       15.72       15.78       15.85       15.91       15.99    
        16.07       16.16       16.26       16.37       16.47       16.57       16.65       16.71       16.75       16.78    
        16.80       16.80       16.78       16.75       16.70       16.64       16.57       16.49       16.36       16.05    
        16.50       16.71       16.84       16.94       17.02       17.10       17.17       17.25       17.32       17.38    
        17.44       17.49       17.52       17.54       17.55       17.54       17.51       17.48       17.43       17.38    
        17.33       17.26       17.20       17.14       17.08       17.02       16.97       16.92       16.88       16.85    
        16.82       16.79       16.77       16.75       16.74       16.74       16.73       16.72       16.72       16.72    
        15.21       15.21       15.21       15.21       15.21       15.20       15.20       15.20       15.20       15.20    
        15.20       15.20       15.20       15.20       15.20       15.21       15.21       15.21       15.21       15.21    
        15.22       15.23       15.24       15.25       15.27       15.29       15.31       15.33       15.36       15.40    
        15.44       15.49       15.54       15.60       15.66       15.73       15.79       15.86       15.93       16.00    
        16.08       16.18       16.28       16.40       16.52       16.63       16.73       16.81       16.87       16.92    
        16.94       16.95       16.95       16.92       16.88       16.83       16.77       16.70       16.64       16.59    
        16.76       16.91       17.02       17.12       17.20       17.27       17.34       17.41       17.48       17.54    
        17.60       17.65       17.69       17.71       17.71       17.70       17.67       17.63       17.59       17.53    
        17.47       17.41       17.35       17.29       17.22       17.16       17.11       17.06       17.02       16.99    
        16.96       16.93       16.91       16.89       16.88       16.87       16.86       16.86       16.85       16.85    
        15.22       15.22       15.22       15.22       15.22       15.21       15.21       15.21       15.21       15.21    
        15.21       15.21       15.21       15.22       15.22       15.22       15.22       15.22       15.22       15.23    
        15.24       15.24       15.25       15.27       15.28       15.30       15.32       15.34       15.37       15.41    
        15.45       15.49       15.55       15.60       15.66       15.73       15.80       15.87       15.94       16.01    
        16.10       16.19       16.30       16.42       16.55       16.69       16.80       16.91       16.99       17.05    
        17.09       17.12       17.13       17.11       17.08       17.04       16.99       16.95       16.92       16.94    
        17.03       17.13       17.22       17.30       17.38       17.45       17.51       17.58       17.64       17.70    
        17.75       17.80       17.84       17.86       17.86       17.85       17.82       17.78       17.73       17.68    
        17.61       17.55       17.49       17.42       17.36       17.30       17.25       17.20       17.16       17.12    
        17.09       17.06       17.04       17.02       17.00       17.00       16.99       16.98       16.98       16.98    
        15.23       15.23       15.23       15.23       15.23       15.22       15.22       15.22       15.22       15.22    
        15.22       15.22       15.22       15.22       15.23       15.23       15.23       15.23       15.24       15.24    
        15.25       15.26       15.27       15.28       15.29       15.31       15.33       15.35       15.38       15.41    
        15.45       15.50       15.55       15.60       15.66       15.73       15.80       15.87       15.94       16.02    
        16.11       16.20       16.31       16.44       16.58       16.73       16.87       17.00       17.11       17.19    
        17.25       17.29       17.32       17.32       17.30       17.27       17.23       17.21       17.20       17.22    
        17.28       17.35       17.43       17.50       17.56       17.62       17.68       17.74       17.80       17.85    
        17.91       17.95       17.99       18.01       18.01       18.00       17.97       17.93       17.87       17.81    
        17.75       17.68       17.62       17.55       17.49       17.43       17.37       17.32       17.28       17.25    
        17.22       17.19       17.16       17.14       17.13       17.12       17.11       17.10       17.10       17.10    
        15.24       15.24       15.24       15.24       15.23       15.23       15.23       15.23       15.23       15.23    
        15.23       15.23       15.23       15.23       15.24       15.24       15.24       15.24       15.25       15.25    
        15.26       15.27       15.28       15.29       15.30       15.31       15.33       15.36       15.38       15.42    
        15.45       15.50       15.55       15.60       15.66       15.73       15.79       15.87       15.95       16.03    
        16.12       16.21       16.33       16.46       16.61       16.78       16.94       17.09       17.23       17.33    
        17.42       17.48       17.51       17.53       17.53       17.51       17.48       17.46       17.46       17.48    
        17.52       17.57       17.63       17.69       17.74       17.80       17.85       17.90       17.95       18.00    
        18.05       18.10       18.13       18.15       18.16       18.14       18.11       18.06       18.01       17.94    
        17.88       17.81       17.74       17.68       17.61       17.55       17.49       17.44       17.40       17.36    
        17.33       17.31       17.28       17.26       17.24       17.23       17.22       17.21       17.21       17.21    
        15.25       15.25       15.24       15.24       15.24       15.24       15.24       15.24       15.24       15.24    
        15.24       15.24       15.24       15.24       15.24       15.24       15.25       15.25       15.26       15.26    
        15.27       15.28       15.28       15.29       15.31       15.32       15.34       15.36       15.39       15.42    
        15.46       15.50       15.55       15.60       15.66       15.72       15.79       15.87       15.95       16.03    
        16.13       16.23       16.34       16.48       16.64       16.82       17.01       17.19       17.35       17.48    
        17.59       17.67       17.72       17.75       17.76       17.76       17.74       17.72       17.71       17.72    
        17.75       17.79       17.83       17.88       17.92       17.97       18.01       18.06       18.11       18.15    
        18.19       18.23       18.27       18.29       18.29       18.28       18.25       18.20       18.14       18.07    
        18.00       17.92       17.85       17.79       17.73       17.67       17.61       17.56       17.51       17.47    
        17.44       17.41       17.39       17.37       17.35       17.33       17.32       17.32       17.31       17.31    
        15.25       15.25       15.25       15.25       15.25       15.25       15.25       15.24       15.24       15.24    
        15.24       15.24       15.25       15.25       15.25       15.25       15.25       15.26       15.26       15.27    
        15.28       15.28       15.29       15.30       15.31       15.33       15.35       15.37       15.39       15.42    
        15.46       15.50       15.55       15.60       15.66       15.72       15.79       15.87       15.95       16.04    
        16.14       16.24       16.37       16.51       16.68       16.87       17.08       17.28       17.47       17.63    
        17.77       17.86       17.93       17.98       18.00       18.00       17.99       17.97       17.96       17.96    
        17.97       17.99       18.02       18.06       18.10       18.14       18.17       18.21       18.25       18.29    
        18.33       18.37       18.40       18.42       18.42       18.41       18.38       18.33       18.26       18.19    
        18.11       18.04       17.96       17.89       17.83       17.77       17.71       17.66       17.61       17.57    
        17.54       17.51       17.49       17.47       17.45       17.43       17.42       17.41       17.41       17.40    
        15.26       15.26       15.26       15.26       15.25       15.25       15.25       15.25       15.25       15.25    
        15.25       15.25       15.25       15.25       15.25       15.26       15.26       15.26       15.27       15.27    
        15.28       15.29       15.30       15.31       15.32       15.33       15.35       15.37       15.40       15.43    
        15.46       15.50       15.55       15.60       15.66       15.73       15.80       15.87       15.96       16.05    
        16.15       16.26       16.39       16.54       16.72       16.92       17.15       17.38       17.59       17.79    
        17.94       18.06       18.14       18.20       18.23       18.24       18.23       18.21       18.19       18.18    
        18.18       18.19       18.21       18.24       18.27       18.30       18.33       18.36       18.40       18.43    
        18.46       18.49       18.52       18.54       18.54       18.53       18.50       18.45       18.38       18.31    
        18.22       18.14       18.06       17.99       17.92       17.86       17.81       17.75       17.70       17.66    
        17.63       17.60       17.58       17.55       17.54       17.52       17.51       17.50       17.49       17.49    
        15.27       15.26       15.26       15.26       15.26       15.26       15.26       15.25       15.25       15.25    
        15.25       15.25       15.25       15.26       15.26       15.26       15.26       15.27       15.27       15.28    
        15.28       15.29       15.30       15.31       15.32       15.34       15.35       15.37       15.40       15.43    
        15.46       15.50       15.55       15.61       15.67       15.73       15.80       15.88       15.96       16.06    
        16.17       16.29       16.42       16.58       16.76       16.98       17.22       17.47       17.71       17.93    
        18.11       18.25       18.35       18.42       18.46       18.47       18.47       18.45       18.42       18.40    
        18.39       18.39       18.40       18.41       18.43       18.45       18.48       18.51       18.53       18.56    
        18.59       18.61       18.64       18.65       18.66       18.65       18.62       18.57       18.50       18.42    
        18.33       18.24       18.16       18.08       18.01       17.95       17.89       17.83       17.79       17.74    
        17.71       17.68       17.65       17.63       17.61       17.60       17.59       17.58       17.57       17.57    
        15.27       15.27       15.27       15.27       15.26       15.26       15.26       15.26       15.26       15.26    
        15.26       15.26       15.26       15.26       15.26       15.26       15.27       15.27       15.27       15.28    
        15.29       15.30       15.31       15.32       15.33       15.34       15.36       15.38       15.40       15.43    
        15.46       15.51       15.55       15.61       15.67       15.73       15.81       15.88       15.97       16.07    
        16.19       16.31       16.45       16.62       16.81       17.03       17.28       17.55       17.82       18.07    
        18.28       18.44       18.56       18.63       18.68       18.70       18.69       18.67       18.64       18.61    
        18.59       18.57       18.57       18.57       18.59       18.60       18.62       18.64       18.66       18.69    
        18.71       18.73       18.75       18.76       18.76       18.75       18.72       18.67       18.60       18.52    
        18.43       18.33       18.24       18.16       18.08       18.02       17.96       17.91       17.86       17.81    
        17.78       17.75       17.72       17.70       17.68       17.67       17.65       17.65       17.64       17.64    
        15.27       15.27       15.27       15.27       15.27       15.26       15.26       15.26       15.26       15.26    
        15.26       15.26       15.26       15.26       15.26       15.26       15.27       15.27       15.28       15.28    
        15.29       15.30       15.31       15.32       15.33       15.34       15.36       15.38       15.40       15.43    
        15.47       15.51       15.56       15.61       15.67       15.74       15.81       15.90       15.99       16.09    
        16.21       16.34       16.49       16.66       16.86       17.09       17.35       17.64       17.93       18.20    
        18.43       18.62       18.75       18.83       18.88       18.91       18.91       18.88       18.85       18.81    
        18.78       18.75       18.74       18.73       18.73       18.74       18.76       18.77       18.79       18.80    
        18.82       18.84       18.85       18.86       18.86       18.85       18.82       18.77       18.70       18.62    
        18.52       18.42       18.32       18.23       18.15       18.08       18.02       17.97       17.92       17.88    
        17.84       17.81       17.78       17.76       17.74       17.73       17.71       17.70       17.70       17.70    
        15.28       15.28       15.27       15.27       15.27       15.27       15.27       15.26       15.26       15.26    
        15.26       15.26       15.26       15.26       15.26       15.27       15.27       15.27       15.28       15.28    
        15.29       15.30       15.31       15.32       15.33       15.35       15.36       15.38       15.41       15.43    
        15.47       15.51       15.56       15.62       15.68       15.75       15.83       15.91       16.00       16.11    
        16.23       16.37       16.52       16.70       16.90       17.14       17.42       17.71       18.02       18.31    
        18.57       18.78       18.93       19.02       19.08       19.10       19.10       19.08       19.04       19.00    
        18.95       18.92       18.89       18.88       18.87       18.87       18.88       18.89       18.90       18.91    
        18.93       18.94       18.94       18.95       18.95       18.93       18.91       18.86       18.79       18.70    
        18.60       18.49       18.39       18.29       18.21       18.13       18.07       18.02       17.97       17.93    
        17.89       17.86       17.83       17.81       17.79       17.78       17.76       17.76       17.75       17.75    
        15.28       15.28       15.28       15.28       15.27       15.27       15.27       15.27       15.27       15.26    
        15.26       15.26       15.26       15.26       15.26       15.26       15.27       15.27       15.27       15.28    
        15.29       15.30       15.31       15.32       15.33       15.35       15.36       15.38       15.41       15.44    
        15.47       15.51       15.56       15.62       15.69       15.76       15.84       15.92       16.02       16.13    
        16.25       16.39       16.56       16.74       16.95       17.20       17.48       17.79       18.11       18.42    
        18.69       18.92       19.09       19.19       19.25       19.28       19.28       19.26       19.22       19.17    
        19.12       19.08       19.04       19.02       19.00       19.00       19.00       19.00       19.01       19.01    
        19.02       19.02       19.03       19.03       19.02       19.01       18.98       18.93       18.86       18.77    
        18.67       18.56       18.45       18.34       18.25       18.18       18.11       18.06       18.01       17.97    
        17.93       17.90       17.87       17.85       17.83       17.82       17.81       17.80       17.79       17.79    
        15.28       15.28       15.28       15.28       15.28       15.27       15.27       15.27       15.27       15.27    
        15.26       15.26       15.26       15.26       15.26       15.26       15.27       15.27       15.27       15.28    
        15.28       15.29       15.30       15.32       15.33       15.35       15.36       15.39       15.41       15.44    
        15.47       15.52       15.57       15.63       15.69       15.77       15.85       15.94       16.04       16.15    
        16.28       16.42       16.59       16.78       17.00       17.25       17.54       17.85       18.18       18.51    
        18.80       19.04       19.23       19.35       19.41       19.44       19.44       19.41       19.38       19.33    
        19.27       19.22       19.18       19.14       19.12       19.11       19.10       19.10       19.10       19.10    
        19.10       19.10       19.10       19.09       19.08       19.07       19.03       18.99       18.92       18.84    
        18.73       18.62       18.50       18.39       18.29       18.21       18.15       18.09       18.04       18.00    
        17.96       17.93       17.91       17.88       17.87       17.85       17.84       17.83       17.82       17.82    
        15.28       15.28       15.28       15.28       15.28       15.27       15.27       15.27       15.27       15.27    
        15.26       15.26       15.26       15.26       15.26       15.26       15.26       15.26       15.27       15.27    
        15.28       15.29       15.30       15.31       15.33       15.35       15.37       15.39       15.41       15.44    
        15.48       15.52       15.57       15.63       15.70       15.78       15.86       15.96       16.06       16.17    
        16.30       16.45       16.63       16.82       17.05       17.31       17.59       17.91       18.25       18.58    
        18.89       19.15       19.35       19.48       19.55       19.58       19.57       19.55       19.51       19.46    
        19.40       19.35       19.30       19.26       19.22       19.20       19.19       19.18       19.17       19.17    
        19.17       19.17       19.16       19.15       19.13       19.11       19.08       19.03       18.97       18.88    
        18.78       18.67       18.55       18.43       18.33       18.24       18.17       18.11       18.07       18.02    
        17.99       17.96       17.93       17.91       17.89       17.88       17.86       17.86       17.85       17.85    
        15.28       15.28       15.28       15.28       15.28       15.28       15.27       15.27       15.27       15.27    
        15.26       15.26       15.26       15.26       15.26       15.26       15.26       15.26       15.26       15.27    
        15.27       15.28       15.30       15.31       15.33       15.35       15.37       15.39       15.41       15.44    
        15.48       15.53       15.58       15.64       15.71       15.79       15.88       15.97       16.08       16.19    
        16.33       16.48       16.66       16.86       17.09       17.35       17.64       17.97       18.31       18.64    
        18.96       19.23       19.44       19.59       19.67       19.70       19.69       19.66       19.62       19.57    
        19.51       19.45       19.40       19.35       19.31       19.28       19.26       19.25       19.24       19.23    
        19.23       19.22       19.21       19.19       19.17       19.15       19.11       19.06       19.00       18.92    
        18.82       18.70       18.58       18.46       18.35       18.26       18.19       18.13       18.08       18.04    
        18.00       17.97       17.95       17.92       17.91       17.89       17.88       17.87       17.87       17.86    
        15.28       15.28       15.28       15.28       15.28       15.28       15.27       15.27       15.27       15.27    
        15.26       15.26       15.26       15.26       15.26       15.26       15.25       15.25       15.25       15.26    
        15.27       15.28       15.29       15.31       15.32       15.34       15.37       15.39       15.42       15.45    
        15.49       15.53       15.58       15.64       15.72       15.80       15.89       15.99       16.10       16.22    
        16.36       16.51       16.69       16.90       17.13       17.40       17.69       18.01       18.35       18.69    
        19.01       19.29       19.51       19.67       19.76       19.79       19.78       19.75       19.71       19.66    
        19.60       19.54       19.48       19.43       19.38       19.35       19.32       19.30       19.29       19.28    
        19.27       19.25       19.24       19.22       19.20       19.17       19.13       19.08       19.02       18.94    
        18.84       18.73       18.61       18.49       18.37       18.28       18.20       18.14       18.09       18.04    
        18.01       17.98       17.95       17.93       17.92       17.90       17.89       17.88       17.88       17.88    
        15.29       15.28       15.28       15.28       15.28       15.28       15.28       15.27       15.27       15.27    
        15.26       15.26       15.26       15.26       15.26       15.25       15.25       15.25       15.24       15.25    
        15.25       15.27       15.28       15.30       15.32       15.34       15.36       15.39       15.42       15.45    
        15.49       15.53       15.59       15.65       15.72       15.81       15.90       16.01       16.12       16.25    
        16.38       16.54       16.72       16.93       17.17       17.43       17.72       18.05       18.38       18.73    
        19.05       19.33       19.56       19.72       19.81       19.85       19.85       19.82       19.77       19.72    
        19.66       19.60       19.54       19.48       19.44       19.40       19.37       19.34       19.32       19.30    
        19.29       19.27       19.26       19.24       19.21       19.17       19.13       19.08       19.02       18.94    
        18.85       18.74       18.62       18.50       18.39       18.29       18.20       18.14       18.09       18.04    
        18.01       17.98       17.96       17.94       17.92       17.91       17.90       17.89       17.88       17.88    
        15.29       15.29       15.29       15.28       15.28       15.28       15.28       15.27       15.27       15.27    
        15.27       15.26       15.26       15.26       15.25       15.25       15.24       15.24       15.23       15.23    
        15.24       15.26       15.28       15.30       15.32       15.34       15.36       15.39       15.42       15.45    
        15.49       15.54       15.59       15.66       15.73       15.82       15.92       16.03       16.14       16.27    
        16.41       16.57       16.75       16.96       17.20       17.46       17.75       18.07       18.40       18.74    
        19.06       19.34       19.57       19.74       19.84       19.88       19.88       19.85       19.80       19.75    
        19.69       19.63       19.57       19.52       19.47       19.43       19.39       19.36       19.34       19.32    
        19.30       19.28       19.26       19.23       19.20       19.17       19.12       19.07       19.01       18.93    
        18.84       18.74       18.62       18.50       18.39       18.29       18.20       18.13       18.08       18.04    
        18.00       17.98       17.95       17.93       17.92       17.90       17.89       17.89       17.88       17.88    
        15.29       15.29       15.29       15.29       15.28       15.28       15.28       15.28       15.27       15.27    
        15.27       15.26       15.26       15.26       15.25       15.25       15.24       15.23       15.21       15.20    
        15.22       15.25       15.27       15.29       15.32       15.34       15.36       15.39       15.42       15.46    
        15.50       15.54       15.60       15.66       15.74       15.83       15.93       16.04       16.16       16.30    
        16.44       16.60       16.78       16.98       17.22       17.48       17.77       18.08       18.40       18.73    
        19.05       19.32       19.55       19.72       19.83       19.88       19.88       19.86       19.81       19.75    
        19.70       19.64       19.58       19.53       19.48       19.43       19.40       19.36       19.34       19.31    
        19.29       19.27       19.24       19.22       19.18       19.14       19.10       19.04       18.98       18.90    
        18.82       18.72       18.61       18.50       18.38       18.28       18.19       18.12       18.07       18.03    
        17.99       17.97       17.94       17.92       17.91       17.90       17.89       17.88       17.88       17.87    
        15.29       15.29       15.29       15.29       15.28       15.28       15.28       15.28       15.27       15.27    
        15.27       15.26       15.26       15.26       15.25       15.25       15.24       15.22       15.19       15.12    
        15.20       15.24       15.27       15.29       15.31       15.34       15.36       15.39       15.42       15.46    
        15.50       15.55       15.61       15.67       15.75       15.84       15.94       16.05       16.18       16.32    
        16.46       16.62       16.80       17.00       17.23       17.49       17.77       18.07       18.38       18.70    
        19.01       19.28       19.50       19.67       19.79       19.85       19.86       19.83       19.79       19.74    
        19.68       19.62       19.57       19.51       19.46       19.42       19.38       19.35       19.32       19.29    
        19.27       19.24       19.21       19.18       19.15       19.11       19.06       19.00       18.93       18.86    
        18.78       18.69       18.58       18.48       18.37       18.27       18.18       18.11       18.05       18.01    
        17.98       17.95       17.93       17.91       17.90       17.88       17.88       17.87       17.86       17.86    
        15.29       15.29       15.29       15.29       15.29       15.28       15.28       15.28       15.28       15.27    
        15.27       15.26       15.26       15.26       15.25       15.25       15.24       15.23       15.22       15.20    
        15.22       15.25       15.27       15.29       15.32       15.34       15.37       15.39       15.43       15.46    
        15.50       15.56       15.61       15.68       15.76       15.85       15.95       16.06       16.19       16.33    
        16.48       16.64       16.82       17.02       17.24       17.49       17.76       18.04       18.34       18.65    
        18.95       19.21       19.43       19.60       19.72       19.78       19.80       19.78       19.74       19.69    
        19.64       19.58       19.53       19.48       19.43       19.39       19.35       19.32       19.28       19.25    
        19.22       19.20       19.16       19.13       19.09       19.05       19.00       18.94       18.88       18.81    
        18.73       18.64       18.54       18.44       18.34       18.25       18.16       18.09       18.03       17.99    
        17.96       17.93       17.91       17.89       17.88       17.87       17.86       17.85       17.85       17.85    
        15.29       15.29       15.29       15.29       15.29       15.29       15.28       15.28       15.28       15.27    
        15.27       15.27       15.26       15.26       15.26       15.25       15.25       15.24       15.24       15.23    
        15.24       15.26       15.28       15.30       15.32       15.34       15.37       15.39       15.43       15.46    
        15.51       15.56       15.62       15.69       15.76       15.85       15.96       16.07       16.20       16.34    
        16.50       16.66       16.83       17.02       17.24       17.47       17.73       18.00       18.29       18.58    
        18.86       19.11       19.33       19.50       19.62       19.69       19.72       19.71       19.68       19.63    
        19.58       19.52       19.47       19.42       19.38       19.33       19.30       19.26       19.23       19.20    
        19.16       19.13       19.10       19.06       19.02       18.98       18.93       18.87       18.81       18.74    
        18.66       18.58       18.49       18.40       18.31       18.22       18.13       18.06       18.01       17.97    
        17.93       17.91       17.89       17.87       17.86       17.85       17.84       17.83       17.83       17.83    
        15.29       15.29       15.29       15.29       15.29       15.29       15.28       15.28       15.28       15.27    
        15.27       15.27       15.27       15.26       15.26       15.26       15.25       15.25       15.25       15.25    
        15.26       15.27       15.29       15.31       15.32       15.34       15.37       15.40       15.43       15.47    
        15.51       15.56       15.62       15.69       15.77       15.86       15.96       16.08       16.21       16.35    
        16.50       16.66       16.83       17.02       17.23       17.45       17.69       17.94       18.21       18.49    
        18.75       19.00       19.21       19.37       19.49       19.57       19.61       19.61       19.59       19.54    
        19.50       19.44       19.39       19.35       19.30       19.26       19.22       19.19       19.15       19.12    
        19.09       19.05       19.02       18.98       18.94       18.89       18.84       18.78       18.72       18.66    
        18.58       18.51       18.43       18.34       18.26       18.18       18.10       18.03       17.98       17.94    
        17.91       17.88       17.86       17.85       17.83       17.83       17.82       17.81       17.81       17.81    
        15.29       15.29       15.29       15.29       15.29       15.29       15.28       15.28       15.28       15.28    
        15.27       15.27       15.27       15.27       15.26       15.26       15.26       15.26       15.26       15.27    
        15.27       15.28       15.30       15.31       15.33       15.35       15.37       15.40       15.43       15.47    
        15.51       15.56       15.63       15.70       15.78       15.87       15.97       16.08       16.21       16.35    
        16.50       16.66       16.83       17.01       17.20       17.41       17.64       17.87       18.12       18.38    
        18.63       18.86       19.06       19.23       19.35       19.43       19.47       19.49       19.47       19.44    
        19.39       19.34       19.30       19.25       19.20       19.16       19.13       19.09       19.06       19.03    
        18.99       18.96       18.92       18.88       18.84       18.79       18.74       18.68       18.62       18.56    
        18.49       18.42       18.35       18.28       18.20       18.13       18.06       18.00       17.95       17.91    
        17.88       17.85       17.84       17.82       17.81       17.80       17.79       17.79       17.79       17.78    
        15.29       15.29       15.29       15.29       15.29       15.29       15.28       15.28       15.28       15.28    
        15.28       15.27       15.27       15.27       15.27       15.27       15.27       15.27       15.27       15.27    
        15.28       15.29       15.30       15.32       15.33       15.35       15.37       15.40       15.43       15.47    
        15.51       15.56       15.63       15.70       15.78       15.87       15.97       16.08       16.20       16.34    
        16.49       16.65       16.81       16.98       17.17       17.36       17.57       17.79       18.02       18.25    
        18.49       18.71       18.90       19.06       19.18       19.27       19.32       19.34       19.33       19.31    
        19.27       19.22       19.18       19.13       19.09       19.05       19.01       18.98       18.95       18.92    
        18.88       18.85       18.81       18.77       18.72       18.68       18.63       18.57       18.51       18.45    
        18.39       18.33       18.26       18.20       18.13       18.07       18.01       17.95       17.91       17.87    
        17.84       17.82       17.80       17.79       17.78       17.77       17.76       17.76       17.76       17.76    
        15.29       15.29       15.29       15.29       15.29       15.29       15.28       15.28       15.28       15.28    
        15.28       15.27       15.27       15.27       15.27       15.27       15.27       15.27       15.28       15.28    
        15.29       15.30       15.31       15.32       15.33       15.35       15.37       15.40       15.43       15.46    
        15.51       15.56       15.62       15.70       15.78       15.87       15.96       16.07       16.19       16.32    
        16.47       16.62       16.78       16.95       17.12       17.31       17.50       17.70       17.90       18.12    
        18.33       18.54       18.72       18.88       19.00       19.09       19.14       19.17       19.17       19.16    
        19.13       19.09       19.04       19.00       18.96       18.92       18.88       18.85       18.82       18.79    
        18.76       18.72       18.68       18.64       18.60       18.55       18.50       18.45       18.39       18.34    
        18.28       18.22       18.17       18.11       18.05       18.00       17.95       17.90       17.87       17.83    
        17.81       17.79       17.77       17.76       17.75       17.74       17.73       17.73       17.73       17.73    
        15.29       15.29       15.29       15.29       15.29       15.28       15.28       15.28       15.28       15.28    
        15.28       15.28       15.27       15.27       15.27       15.28       15.28       15.28       15.28       15.29    
        15.29       15.30       15.31       15.32       15.34       15.35       15.37       15.40       15.43       15.46    
        15.50       15.56       15.62       15.69       15.77       15.86       15.95       16.06       16.17       16.30    
        16.44       16.59       16.74       16.90       17.06       17.24       17.41       17.59       17.78       17.97    
        18.16       18.35       18.53       18.68       18.80       18.88       18.94       18.98       18.99       18.98    
        18.96       18.93       18.89       18.85       18.81       18.78       18.74       18.71       18.67       18.64    
        18.61       18.58       18.54       18.50       18.46       18.41       18.36       18.31       18.26       18.21    
        18.16       18.11       18.06       18.02       17.97       17.93       17.89       17.85       17.82       17.79    
        17.77       17.75       17.74       17.73       17.72       17.71       17.70       17.70       17.70       17.70    
        15.29       15.29       15.29       15.28       15.28       15.28       15.28       15.28       15.28       15.28    
        15.28       15.28       15.28       15.28       15.28       15.28       15.28       15.28       15.29       15.29    
        15.30       15.30       15.31       15.32       15.34       15.35       15.37       15.39       15.42       15.46    
        15.50       15.55       15.61       15.68       15.76       15.85       15.94       16.04       16.15       16.27    
        16.40       16.54       16.69       16.84       16.99       17.15       17.31       17.48       17.64       17.81    
        17.98       18.15       18.31       18.46       18.58       18.66       18.73       18.77       18.79       18.79    
        18.78       18.75       18.72       18.69       18.65       18.62       18.58       18.55       18.51       18.48    
        18.46       18.43       18.39       18.35       18.31       18.27       18.22       18.17       18.13       18.08    
        18.04       18.00       17.95       17.92       17.88       17.84       17.81       17.79       17.76       17.74    
        17.73       17.71       17.70       17.69       17.68       17.67       17.67       17.66       17.66       17.66    
        15.29       15.28       15.28       15.28       15.28       15.28       15.28       15.27       15.27       15.27    
        15.27       15.27       15.28       15.28       15.28       15.28       15.28       15.28       15.29       15.29    
        15.30       15.30       15.31       15.32       15.34       15.35       15.37       15.39       15.42       15.45    
        15.49       15.54       15.59       15.66       15.74       15.83       15.92       16.02       16.12       16.23    
        16.35       16.48       16.62       16.77       16.91       17.06       17.20       17.35       17.49       17.64    
        17.79       17.94       18.08       18.22       18.34       18.43       18.50       18.54       18.57       18.58    
        18.58       18.56       18.54       18.51       18.48       18.44       18.41       18.37       18.34       18.31    
        18.29       18.26       18.23       18.20       18.16       18.11       18.07       18.03       17.99       17.95    
        17.91       17.87       17.84       17.81       17.78       17.76       17.74       17.72       17.70       17.69    
        17.68       17.67       17.66       17.65       17.64       17.64       17.63       17.63       17.63       17.63    
        15.28       15.28       15.28       15.27       15.27       15.27       15.27       15.27       15.27       15.27    
        15.27       15.27       15.27       15.27       15.28       15.28       15.28       15.28       15.29       15.29    
        15.30       15.30       15.31       15.32       15.33       15.35       15.36       15.38       15.41       15.44    
        15.48       15.52       15.58       15.64       15.72       15.80       15.89       15.98       16.08       16.18    
        16.29       16.41       16.54       16.68       16.81       16.94       17.08       17.21       17.33       17.46    
        17.58       17.71       17.84       17.97       18.08       18.18       18.25       18.30       18.33       18.35    
        18.36       18.35       18.34       18.31       18.29       18.26       18.23       18.19       18.16       18.12    
        18.11       18.09       18.06       18.03       18.00       17.96       17.92       17.88       17.84       17.81    
        17.78       17.75       17.72       17.70       17.68       17.66       17.65       17.64       17.63       17.63    
        17.62       17.62       17.61       17.61       17.60       17.60       17.59       17.59       17.59       17.59    
        15.27       15.27       15.27       15.27       15.26       15.26       15.26       15.26       15.26       15.26    
        15.26       15.27       15.27       15.27       15.27       15.28       15.28       15.28       15.29       15.29    
        15.30       15.30       15.31       15.32       15.33       15.34       15.36       15.38       15.40       15.43    
        15.46       15.50       15.56       15.62       15.69       15.77       15.86       15.94       16.03       16.12    
        16.22       16.33       16.45       16.57       16.70       16.82       16.94       17.05       17.16       17.27    
        17.37       17.48       17.60       17.71       17.82       17.91       17.98       18.04       18.08       18.11    
        18.12       18.13       18.12       18.10       18.08       18.06       18.03       18.00       17.97       17.95    
        17.93       17.91       17.88       17.86       17.83       17.80       17.76       17.73       17.70       17.67    
        17.64       17.62       17.60       17.59       17.57       17.57       17.56       17.56       17.56       17.56    
        17.57       17.57       17.57       17.57       17.56       17.56       17.56       17.55       17.55       17.55    
        15.26       15.26       15.25       15.25       15.25       15.25       15.25       15.25       15.25       15.25    
        15.26       15.26       15.26       15.27       15.27       15.27       15.28       15.28       15.29       15.29    
        15.29       15.30       15.30       15.31       15.32       15.34       15.35       15.37       15.39       15.41    
        15.44       15.48       15.53       15.59       15.65       15.73       15.81       15.89       15.97       16.06    
        16.14       16.24       16.34       16.45       16.57       16.68       16.78       16.88       16.98       17.07    
        17.16       17.25       17.34       17.44       17.54       17.63       17.71       17.76       17.81       17.85    
        17.87       17.88       17.88       17.88       17.87       17.85       17.83       17.81       17.78       17.76    
        17.74       17.72       17.70       17.68       17.66       17.63       17.60       17.58       17.55       17.53    
        17.51       17.49       17.48       17.47       17.46       17.46       17.47       17.47       17.48       17.49    
        17.50       17.51       17.51       17.52       17.52       17.52       17.51       17.51       17.51       17.51    
        15.24       15.24       15.23       15.23       15.23       15.24       15.24       15.24       15.24       15.24    
        15.25       15.25       15.26       15.26       15.26       15.27       15.27       15.28       15.28       15.29    
        15.29       15.29       15.30       15.31       15.32       15.33       15.34       15.36       15.37       15.40    
        15.42       15.46       15.50       15.55       15.61       15.68       15.75       15.83       15.90       15.97    
        16.05       16.13       16.22       16.32       16.42       16.52       16.61       16.70       16.79       16.86    
        16.93       17.00       17.08       17.16       17.25       17.34       17.41       17.48       17.53       17.57    
        17.60       17.62       17.63       17.64       17.64       17.63       17.62       17.60       17.58       17.56    
        17.54       17.53       17.52       17.50       17.49       17.47       17.44       17.42       17.40       17.38    
        17.37       17.36       17.35       17.35       17.35       17.36       17.37       17.38       17.39       17.41    
        17.43       17.44       17.46       17.47       17.47       17.47       17.47       17.47       17.47       17.47    
        15.21       15.21       15.21       15.21       15.21       15.21       15.22       15.22       15.23       15.23    
        15.23       15.24       15.24       15.25       15.26       15.26       15.27       15.27       15.28       15.28    
        15.28       15.29       15.29       15.30       15.31       15.32       15.33       15.34       15.36       15.38    
        15.40       15.43       15.46       15.50       15.55       15.61       15.68       15.75       15.82       15.88    
        15.95       16.02       16.09       16.17       16.26       16.34       16.43       16.51       16.58       16.64    
        16.70       16.76       16.82       16.88       16.96       17.04       17.11       17.17       17.23       17.27    
        17.31       17.35       17.37       17.39       17.39       17.40       17.39       17.39       17.38       17.36    
        17.35       17.34       17.33       17.32       17.31       17.30       17.28       17.27       17.26       17.24    
        17.24       17.23       17.23       17.23       17.24       17.25       17.27       17.28       17.30       17.33    
        17.35       17.37       17.39       17.41       17.42       17.42       17.43       17.43       17.43       17.43    
        15.16       15.16       15.17       15.17       15.18       15.19       15.19       15.20       15.21       15.21    
        15.22       15.22       15.23       15.24       15.24       15.25       15.26       15.26       15.27       15.27    
        15.28       15.28       15.29       15.29       15.30       15.30       15.31       15.32       15.34       15.35    
        15.37       15.39       15.42       15.45       15.49       15.54       15.60       15.66       15.72       15.77    
        15.83       15.89       15.95       16.01       16.08       16.16       16.23       16.29       16.36       16.41    
        16.46       16.50       16.55       16.60       16.66       16.72       16.79       16.85       16.91       16.96    
        17.01       17.05       17.09       17.12       17.14       17.15       17.16       17.17       17.16       17.16    
        17.15       17.14       17.13       17.13       17.13       17.13       17.12       17.12       17.11       17.11    
        17.10       17.10       17.11       17.11       17.12       17.14       17.16       17.18       17.21       17.24    
        17.27       17.30       17.32       17.35       17.36       17.37       17.38       17.38       17.38       17.38    
        15.10       15.10       15.11       15.13       15.14       15.15       15.16       15.17       15.18       15.19    
        15.20       15.21       15.21       15.22       15.23       15.24       15.25       15.25       15.26       15.26    
        15.27       15.27       15.28       15.28       15.29       15.29       15.30       15.31       15.32       15.33    
        15.34       15.36       15.37       15.40       15.43       15.46       15.51       15.55       15.60       15.65    
        15.70       15.74       15.79       15.84       15.89       15.95       16.01       16.07       16.12       16.17    
        16.21       16.25       16.28       16.31       16.36       16.41       16.46       16.52       16.58       16.64    
        16.69       16.74       16.79       16.83       16.87       16.90       16.92       16.94       16.95       16.95    
        16.95       16.94       16.94       16.94       16.95       16.95       16.96       16.96       16.96       16.97    
        16.97       16.98       16.99       17.00       17.01       17.03       17.05       17.08       17.11       17.14    
        17.18       17.21       17.25       17.28       17.30       17.32       17.33       17.33       17.34       17.34    
        15.00       15.01       15.04       15.06       15.08       15.10       15.12       15.14       15.15       15.16    
        15.18       15.19       15.19       15.20       15.21       15.22       15.23       15.24       15.25       15.25    
        15.26       15.26       15.27       15.27       15.27       15.28       15.28       15.29       15.29       15.30    
        15.31       15.31       15.32       15.34       15.35       15.37       15.40       15.43       15.47       15.51    
        15.55       15.58       15.62       15.65       15.69       15.73       15.77       15.82       15.87       15.91    
        15.95       15.98       16.01       16.03       16.06       16.09       16.13       16.18       16.23       16.29    
        16.35       16.41       16.48       16.53       16.59       16.63       16.67       16.70       16.72       16.74    
        16.75       16.75       16.75       16.75       16.76       16.77       16.79       16.80       16.82       16.83    
        16.85       16.86       16.87       16.89       16.90       16.92       16.94       16.97       17.00       17.04    
        17.08       17.12       17.17       17.20       17.24       17.26       17.28       17.29       17.29       17.29    
        14.84       14.88       14.93       14.97       15.01       15.04       15.07       15.09       15.11       15.13    
        15.15       15.16       15.17       15.18       15.19       15.20       15.21       15.22       15.23       15.24    
        15.25       15.25       15.26       15.26       15.26       15.26       15.26       15.26       15.27       15.27    
        15.27       15.27       15.27       15.27       15.27       15.27       15.28       15.30       15.32       15.35    
        15.38       15.41       15.43       15.45       15.47       15.49       15.52       15.55       15.59       15.63    
        15.67       15.71       15.74       15.75       15.76       15.77       15.79       15.82       15.86       15.92    
        15.98       16.06       16.14       16.22       16.29       16.35       16.41       16.46       16.50       16.53    
        16.55       16.55       16.56       16.56       16.57       16.59       16.62       16.64       16.67       16.70    
        16.73       16.75       16.76       16.78       16.79       16.81       16.83       16.86       16.89       16.93    
        16.97       17.02       17.08       17.12       17.17       17.20       17.22       17.24       17.25       17.25    

 HEAD WILL BE SAVED ON UNIT 1018 AT END OF TIME STEP    1, STRESS PERIOD    1


  VOLUME BUDGET FOR ENTIRE MODEL AT END OF TIME STEP    1, STRESS PERIOD   1
  ---------------------------------------------------------------------------------------------------

     CUMULATIVE VOLUME      L**3       RATES FOR THIS TIME STEP      L**3/T          PACKAGE NAME    
     ------------------                 ------------------------                     ----------------

           IN:                                      IN:
           ---                                      ---
              STO-SS =           0.0000                STO-SS =           0.0000     STORAGE                          
              STO-SY =           0.0000                STO-SY =           0.0000     STORAGE                          
                 WEL =           0.0000                   WEL =           0.0000     WEL_0                            
                 RIV =           0.0000                   RIV =           0.0000     RIV_0                            
                 RCH =        5192.1686                   RCH =           0.2404     RCH_0                            
                 CHD =           0.0000                   CHD =           0.0000     CHD_0                            

            TOTAL IN =        5192.1686              TOTAL IN =           0.2404

          OUT:                                     OUT:
          ----                                     ----
              STO-SS =           0.0000                STO-SS =           0.0000     STORAGE                          
              STO-SY =           0.0000                STO-SY =           0.0000     STORAGE                          
                 WEL =         707.9400                   WEL =       3.2775E-02     WEL_0                            
                 RIV =        2374.3846                   RIV =           0.1099     RIV_0                            
                 RCH =           0.0000                   RCH =           0.0000     RCH_0                            
                 CHD =        2073.0022                   CHD =       9.5972E-02     CHD_0                            

           TOTAL OUT =        5155.3268             TOTAL OUT =           0.2387

            IN - OUT =          36.8417              IN - OUT =       1.7056E-03

 PERCENT DISCREPANCY =           0.71     PERCENT DISCREPANCY =           0.71




         TIME SUMMARY AT END OF TIME STEP    1 IN STRESS PERIOD    1
                    SECONDS     MINUTES      HOURS       DAYS        YEARS
                    -----------------------------------------------------------
   TIME STEP LENGTH  21600.      360.00      6.0000     0.25000     6.84463E-04
 STRESS PERIOD TIME  21600.      360.00      6.0000     0.25000     6.84463E-04
         TOTAL TIME  21600.      360.00      6.0000     0.25000     6.84463E-04


end timestep

